SandboxData_C2S7_20210305/C2S7N08032/scenario_004/case.raw
0,100.0,33,0,1,60.0
GRID OPTIMIZATION COMPETITION CHALLENGE 2
INPUT DATA FILES ARE RAW JSON CON
1,'135424LD',13.8,1,1,2,1,1.01100421,-2.690934,1.1,0.85,1.15,0.75
2,'135432LD',13.8,1,1,2,1,1.02455628,-5.715438,1.1,0.85,1.15,0.75
3,'135433LD',13.8,1,1,2,1,1.00698662,-4.50259,1.1,0.85,1.15,0.75
4,'135435LD',13.8,1,1,2,1,1.02835834,-5.152154,1.1,0.85,1.15,0.75
5,'135442LD',13.8,1,1,2,1,1.00033772,8.942442,1.1,0.85,1.15,0.75
6,'135443LD',13.8,1,1,2,1,0.97514689,5.509569,1.1,0.85,1.15,0.75
7,'135444LD',13.8,1,1,2,1,0.95763189,9.637963,1.1,0.85,1.15,0.75
8,'135447LD',13.8,1,1,2,1,0.95526522,7.69399,1.1,0.85,1.15,0.75
9,'135449LD',13.8,1,1,2,1,0.99648088,5.639934,1.1,0.85,1.15,0.75
10,'135452LD',13.8,1,1,2,1,0.99509829,8.15079,1.1,0.85,1.15,0.75
11,'135469LD',13.8,1,1,2,1,0.98482007,-10.948262,1.1,0.85,1.15,0.75
12,'135472LD',13.8,1,1,2,1,0.99439317,-10.137811,1.1,0.85,1.15,0.75
13,'135477LD',13.8,1,1,2,1,0.97405177,-10.594166,1.1,0.85,1.15,0.75
14,'135486LD',13.8,1,1,2,1,0.96819443,-16.38468,1.1,0.85,1.15,0.75
15,'135491LD',13.8,1,1,2,1,0.97771168,-8.781242,1.1,0.85,1.15,0.75
16,'135495LD',13.8,1,1,2,1,1.00135756,-0.204775,1.1,0.85,1.15,0.75
17,'135503LD',13.8,1,1,2,1,0.98791432,-22.610989,1.1,0.85,1.15,0.75
18,'135509LD',13.8,1,1,2,1,0.99312079,-21.913149,1.1,0.85,1.15,0.75
19,'135510LD',13.8,1,1,2,1,1.00256538,-24.971865,1.1,0.85,1.15,0.75
20,'135511LD',13.8,1,1,2,1,0.98244941,-16.623461,1.1,0.85,1.15,0.75
21,'135513LD',13.8,1,1,2,1,0.98948878,-15.932507,1.1,0.85,1.15,0.75
22,'135515LD',13.8,1,1,2,1,1.04246306,-18.766407,1.1,0.85,1.15,0.75
23,'135518LD',13.8,1,1,2,1,0.99978918,-18.896154,1.1,0.85,1.15,0.75
24,'135522LD',13.8,1,1,2,1,1.04064536,-20.64335,1.1,0.85,1.15,0.75
25,'135525LD',13.8,1,1,2,1,0.97889358,-18.77759,1.1,0.85,1.15,0.75
26,'135526LD',13.8,1,1,2,1,1.03958821,-20.966831,1.1,0.85,1.15,0.75
27,'135527LD',13.8,1,1,2,1,0.97790009,-18.800202,1.1,0.85,1.15,0.75
28,'135528LD',13.8,1,1,2,1,0.99166369,-16.898105,1.1,0.85,1.15,0.75
29,'135535LD',13.8,1,1,2,1,1.01991463,-15.290032,1.1,0.85,1.15,0.75
30,'135540LD',13.8,1,1,2,1,0.97742659,-21.780362,1.1,0.85,1.15,0.75
31,'135541LD',13.8,1,1,2,1,0.97633177,-23.2097,1.1,0.85,1.15,0.75
32,'135543LD',13.8,1,1,2,1,1.00128233,-24.355541,1.1,0.85,1.15,0.75
33,'135544LD',13.8,1,1,2,1,0.97060412,-22.519117,1.1,0.85,1.15,0.75
34,'135545LD',13.8,1,1,2,1,0.97367996,-21.238419,1.1,0.85,1.15,0.75
35,'135548LD',13.8,1,1,2,1,1.01476872,-5.176264,1.1,0.85,1.15,0.75
36,'135549LD',13.8,1,1,2,1,1.00116444,-7.237651,1.1,0.85,1.15,0.75
37,'135554LD',13.8,1,1,2,1,1.01161611,-5.335735,1.1,0.85,1.15,0.75
38,'135555LD',13.8,1,1,2,1,1.02242374,-8.348475,1.1,0.85,1.15,0.75
39,'135556LD',13.8,1,1,2,1,0.99435449,0.202886,1.1,0.85,1.15,0.75
40,'135558LD',13.8,1,1,2,1,0.99517131,4.304456,1.1,0.85,1.15,0.75
41,'135559LD',13.8,1,1,2,1,1.0192287,-0.261505,1.1,0.85,1.15,0.75
42,'135563LD',13.8,1,1,2,1,1.02909303,1.865721,1.1,0.85,1.15,0.75
43,'135567LD',13.8,1,1,2,1,1.03810513,8.330042,1.1,0.85,1.15,0.75
44,'135568LD',13.8,1,1,2,1,1.00479543,-16.521925,1.1,0.85,1.15,0.75
45,'135570LD',13.8,1,1,2,1,1.0034163,-10.769176,1.1,0.85,1.15,0.75
46,'135571LD',13.8,1,1,2,1,1.00226653,-10.845875,1.1,0.85,1.15,0.75
47,'135574LD',13.8,1,1,2,1,1.00111258,-18.627985,1.1,0.85,1.15,0.75
48,'135576LD',13.8,1,1,2,1,0.98571223,-5.455817,1.1,0.85,1.15,0.75
49,'135579LD',13.8,1,1,2,1,1.00670147,-9.570809,1.1,0.85,1.15,0.75
50,'135580LD',13.8,1,1,2,1,0.99149406,-9.438866,1.1,0.85,1.15,0.75
51,'135582LD',13.8,1,1,2,1,0.97985417,-7.732039,1.1,0.85,1.15,0.75
52,'135583LD',13.8,1,1,2,1,0.9851076,-7.869583,1.1,0.85,1.15,0.75
53,'135592LD',13.8,1,1,2,1,1.04413283,-30.331487,1.1,0.85,1.15,0.75
54,'135593LD',13.8,1,1,2,1,0.99877709,-26.212516,1.1,0.85,1.15,0.75
55,'135594LD',13.8,1,1,2,1,1.02701557,-28.267817,1.1,0.85,1.15,0.75
56,'135595LD',13.8,1,1,2,1,1.02354693,-28.07342,1.1,0.85,1.15,0.75
57,'135596LD',13.8,1,1,2,1,0.98987687,-32.479097,1.1,0.85,1.15,0.75
58,'135597LD',13.8,1,1,2,1,1.02060235,-27.896161,1.1,0.85,1.15,0.75
59,'135598LD',13.8,1,1,2,1,1.02380228,-27.885475,1.1,0.85,1.15,0.75
60,'135599LD',13.8,1,1,2,1,1.00912249,-24.662802,1.1,0.85,1.15,0.75
61,'135601LD',13.8,1,1,2,1,1.00545454,-27.528055,1.1,0.85,1.15,0.75
62,'135602LD',13.8,1,1,2,1,0.99513346,-34.319324,1.1,0.85,1.15,0.75
63,'135604LD',13.8,1,1,2,1,1.00359225,1.094293,1.1,0.85,1.15,0.75
64,'135606LD',13.8,1,1,2,1,1.01265609,-0.949831,1.1,0.85,1.15,0.75
65,'135607LD',13.8,1,1,2,1,0.98709202,0.042803,1.1,0.85,1.15,0.75
66,'135609LD',13.8,1,1,2,1,0.99067396,-9.925076,1.1,0.85,1.15,0.75
67,'135610LD',13.8,1,1,2,1,0.99615282,-8.572269,1.1,0.85,1.15,0.75
68,'135611LD',13.8,1,1,2,1,0.9998073,-7.448238,1.1,0.85,1.15,0.75
69,'135616LD',13.8,1,1,2,1,0.992167,-4.782316,1.1,0.85,1.15,0.75
70,'135617LD',13.8,1,1,2,1,1.00383317,-3.255657,1.1,0.85,1.15,0.75
71,'135625LD',13.8,1,1,2,1,0.98030925,-6.760996,1.1,0.85,1.15,0.75
72,'135631LD',13.8,1,1,2,1,0.99463069,-4.398176,1.1,0.85,1.15,0.75
73,'135633LD',13.8,1,1,2,1,1.02056539,-24.085771,1.1,0.85,1.15,0.75
74,'135635LD',13.8,1,1,2,1,0.96923685,-20.735551,1.1,0.85,1.15,0.75
75,'135636LD',13.8,1,1,2,1,0.97632068,-18.87178,1.1,0.85,1.15,0.75
76,'135639LD',13.8,1,1,2,1,0.96151686,-21.615921,1.1,0.85,1.15,0.75
77,'135647LD',13.8,1,1,2,1,0.96844107,-18.005951,1.1,0.85,1.15,0.75
78,'135648LD',13.8,1,1,2,1,0.98698157,-16.081897,1.1,0.85,1.15,0.75
79,'135649LD',13.8,1,1,2,1,0.984451,-15.875091,1.1,0.85,1.15,0.75
80,'135663LD',13.8,1,1,2,1,1.03410625,-14.180792,1.1,0.85,1.15,0.75
81,'135664LD',13.8,1,1,2,1,0.98102182,-11.33518,1.1,0.85,1.15,0.75
82,'135665LD',13.8,1,1,2,1,0.99270701,-2.778473,1.1,0.85,1.15,0.75
83,'135668LD',13.8,1,1,2,1,0.98048252,-4.087191,1.1,0.85,1.15,0.75
84,'135669LD',13.8,1,1,2,1,1.01631916,-7.866535,1.1,0.85,1.15,0.75
85,'135670LD',13.8,1,1,2,1,0.98555964,-3.743875,1.1,0.85,1.15,0.75
86,'135674LD',13.8,1,1,2,1,1.00047076,-1.751816,1.1,0.85,1.15,0.75
87,'135675LD',13.8,1,1,2,1,1.00069487,-0.878606,1.1,0.85,1.15,0.75
88,'135678LD',13.8,1,1,2,1,0.99497056,-7.488569,1.1,0.85,1.15,0.75
89,'135680LD',13.8,1,1,2,1,0.98318225,-24.972925,1.1,0.85,1.15,0.75
90,'135685LD',13.8,1,1,2,1,1.03781986,-24.718712,1.1,0.85,1.15,0.75
91,'135686LD',13.8,1,1,2,1,0.99277318,-26.725169,1.1,0.85,1.15,0.75
92,'135689LD',13.8,1,1,2,1,0.96603447,-26.001463,1.1,0.85,1.15,0.75
93,'135690LD',13.8,1,1,2,1,1.03456664,-29.014671,1.1,0.85,1.15,0.75
94,'135691LD',13.8,1,1,2,1,1.03670788,-27.145287,1.1,0.85,1.15,0.75
95,'135692LD',13.8,1,1,2,1,0.97764593,-25.559941,1.1,0.85,1.15,0.75
96,'135694LD',13.8,1,1,2,1,1.00888789,-5.501059,1.1,0.85,1.15,0.75
97,'135696LD',13.8,1,1,2,1,1.00223207,-10.071198,1.1,0.85,1.15,0.75
98,'135699LD',13.8,1,1,2,1,0.98853076,-6.580482,1.1,0.85,1.15,0.75
99,'135700LD',13.8,1,1,2,1,0.99762094,-6.234179,1.1,0.85,1.15,0.75
100,'135701LD',13.8,1,1,2,1,1.03686523,-6.560254,1.1,0.85,1.15,0.75
101,'135703LD',13.8,1,1,2,1,1.01184285,-3.794449,1.1,0.85,1.15,0.75
102,'135707LD',13.8,1,1,2,1,0.97440183,-6.595347,1.1,0.85,1.15,0.75
103,'135736LD',13.8,1,1,2,1,1.01302814,-19.733098,1.1,0.85,1.15,0.75
104,'135737LD',13.8,1,1,2,1,0.97559041,-19.681431,1.1,0.85,1.15,0.75
105,'135739LD',13.8,1,1,2,1,0.99266464,-24.629514,1.1,0.85,1.15,0.75
106,'135746LD',13.8,1,1,2,1,0.98621058,-19.335915,1.1,0.85,1.15,0.75
107,'135747LD',13.8,1,1,2,1,0.99131495,-12.188633,1.1,0.85,1.15,0.75
108,'135748LD',13.8,1,1,2,1,0.98765439,-12.333612,1.1,0.85,1.15,0.75
109,'135750LD',13.8,1,1,2,1,1.02430022,-16.931805,1.1,0.85,1.15,0.75
110,'135751LD',13.8,1,1,2,1,0.98327202,-12.374926,1.1,0.85,1.15,0.75
111,'135752LD',13.8,1,1,2,1,1.00980794,-26.304028,1.1,0.85,1.15,0.75
112,'135753LD',13.8,1,1,2,1,0.96971089,-24.987125,1.1,0.85,1.15,0.75
113,'135754LD',13.8,1,1,2,1,0.97726101,-22.84533,1.1,0.85,1.15,0.75
114,'135755LD',13.8,1,1,2,1,0.97494769,-24.031227,1.1,0.85,1.15,0.75
115,'135757LD',13.8,1,1,2,1,0.95743865,-23.438038,1.1,0.85,1.15,0.75
116,'135758LD',13.8,1,1,2,1,0.96628106,-22.151572,1.1,0.85,1.15,0.75
117,'135759LD',13.8,1,1,2,1,0.96997935,-20.941795,1.1,0.85,1.15,0.75
118,'135761LD',13.8,1,1,2,1,0.96634871,-8.393556,1.1,0.85,1.15,0.75
119,'135762LD',13.8,1,1,2,1,0.98552358,-7.57278,1.1,0.85,1.15,0.75
120,'135764LD',13.8,1,1,2,1,1.03278816,-11.087448,1.1,0.85,1.15,0.75
121,'135766LD',13.8,1,1,2,1,0.96886629,-9.860297,1.1,0.85,1.15,0.75
122,'135769LD',13.8,1,1,2,1,0.99139225,-4.414742,1.1,0.85,1.15,0.75
123,'135771LD',13.8,1,1,2,1,1.00571418,-5.557273,1.1,0.85,1.15,0.75
124,'135772LD',13.8,1,1,2,1,1.00623941,-5.401209,1.1,0.85,1.15,0.75
125,'135773LD',13.8,1,1,2,1,1.00657976,-5.424435,1.1,0.85,1.15,0.75
126,'135785LD',13.8,1,1,2,1,1.03609717,-13.299978,1.1,0.85,1.15,0.75
127,'135791LD',13.8,1,1,2,1,1.02984965,-12.75149,1.1,0.85,1.15,0.75
128,'135792LD',13.8,1,1,2,1,0.98205769,-9.893941,1.1,0.85,1.15,0.75
129,'135803LD',13.8,1,1,2,1,0.95907122,-11.186443,1.1,0.85,1.15,0.75
130,'135804LD',13.8,1,1,2,1,0.99148852,-26.568613,1.1,0.85,1.15,0.75
131,'135806LD',13.8,1,1,2,1,0.99999332,-31.604026,1.1,0.85,1.15,0.75
132,'135814LD',13.8,1,1,2,1,0.96216309,-26.660103,1.1,0.85,1.15,0.75
133,'135817LD',13.8,1,1,2,1,0.96785825,-19.789749,1.1,0.85,1.15,0.75
134,'135818LD',13.8,1,1,2,1,0.9867577,-22.165238,1.1,0.85,1.15,0.75
135,'135819LD',13.8,1,1,2,1,0.98518807,-22.191601,1.1,0.85,1.15,0.75
136,'135820LD',13.8,1,1,2,1,0.96275443,-20.127111,1.1,0.85,1.15,0.75
137,'135821LD',13.8,1,1,2,1,1.0319593,-15.986877,1.1,0.85,1.15,0.75
138,'135822LD',13.8,1,1,2,1,0.99076319,-21.769763,1.1,0.85,1.15,0.75
139,'135828LD',13.8,1,1,2,1,0.9556585,-14.86738,1.1,0.85,1.15,0.75
140,'135830LD',13.8,1,1,2,1,0.9495821,-15.432138,1.1,0.85,1.15,0.75
141,'135833LD',13.8,1,1,2,1,0.96701247,-25.498396,1.1,0.85,1.15,0.75
142,'135834LD',13.8,1,1,2,1,0.96923727,-19.224713,1.1,0.85,1.15,0.75
143,'135836LD',13.8,1,1,2,1,0.96020782,-13.873791,1.1,0.85,1.15,0.75
144,'135838LD',13.8,1,1,2,1,0.96000522,-13.880947,1.1,0.85,1.15,0.75
145,'135841LD',13.8,1,1,2,1,0.96982038,-12.839852,1.1,0.85,1.15,0.75
146,'135842LD',13.8,1,1,2,1,1.03242373,-15.413947,1.1,0.85,1.15,0.75
147,'135843LD',13.8,1,1,2,1,0.96680909,-13.222513,1.1,0.85,1.15,0.75
148,'135845LD',13.8,1,1,2,1,0.96257442,-13.819359,1.1,0.85,1.15,0.75
149,'135846LD',13.8,1,1,2,1,0.96677303,-13.360234,1.1,0.85,1.15,0.75
150,'135850LD',13.8,1,1,2,1,1.00098884,-20.268846,1.1,0.85,1.15,0.75
151,'135856LD',13.8,1,1,2,1,0.95991236,-14.013009,1.1,0.85,1.15,0.75
152,'135857LD',13.8,1,1,2,1,0.96581674,-13.205218,1.1,0.85,1.15,0.75
153,'135858LD',13.8,1,1,2,1,0.96306968,-13.556774,1.1,0.85,1.15,0.75
154,'135859LD',13.8,1,1,2,1,0.94967616,-15.127923,1.1,0.85,1.15,0.75
155,'135861LD',13.8,1,1,2,1,0.95485646,-15.003781,1.1,0.85,1.15,0.75
156,'135862LD',13.8,1,1,2,1,0.97659093,-23.352154,1.1,0.85,1.15,0.75
157,'135869LD',13.8,1,1,2,1,0.96579164,-14.818614,1.1,0.85,1.15,0.75
158,'135870LD',13.8,1,1,2,1,0.95148033,-16.166435,1.1,0.85,1.15,0.75
159,'135873LD',13.8,1,1,2,1,0.95821589,-13.735988,1.1,0.85,1.15,0.75
160,'135877LD',13.8,1,1,2,1,0.96654123,-12.746519,1.1,0.85,1.15,0.75
161,'135882LD',13.8,1,1,2,1,0.98202604,-17.615649,1.1,0.85,1.15,0.75
162,'135883LD',13.8,1,1,2,1,0.97314352,-12.347683,1.1,0.85,1.15,0.75
163,'135888LD',13.8,1,1,2,1,0.95689422,-14.080472,1.1,0.85,1.15,0.75
164,'135890LD',13.8,1,1,2,1,0.94037372,-15.645424,1.1,0.85,1.15,0.75
165,'135891LD',13.8,1,1,2,1,0.94603539,-15.094981,1.1,0.85,1.15,0.75
166,'135893LD',13.8,1,1,2,1,0.95629567,-14.114758,1.1,0.85,1.15,0.75
167,'135894LD',13.8,1,1,2,1,1.01992655,-16.569735,1.1,0.85,1.15,0.75
168,'135898LD',13.8,1,1,2,1,1.02684569,-17.019472,1.1,0.85,1.15,0.75
169,'135900LD',13.8,1,1,2,1,0.98722237,-18.609197,1.1,0.85,1.15,0.75
170,'135912LD',13.8,1,1,2,1,1.03653848,-17.241803,1.1,0.85,1.15,0.75
171,'135919LD',13.8,1,1,2,1,0.94196087,-17.013561,1.1,0.85,1.15,0.75
172,'135924LD',13.8,1,1,2,1,0.96074998,-14.665429,1.1,0.85,1.15,0.75
173,'135925LD',13.8,1,1,2,1,1.02472055,-16.201356,1.1,0.85,1.15,0.75
174,'135926LD',13.8,1,1,2,1,0.96802479,-14.221186,1.1,0.85,1.15,0.75
175,'135927LD',13.8,1,1,2,1,0.98035651,-12.902775,1.1,0.85,1.15,0.75
176,'135929LD',13.8,1,1,2,1,1.0410639,-14.978728,1.1,0.85,1.15,0.75
177,'135932LD',13.8,1,1,2,1,0.96459293,-13.865621,1.1,0.85,1.15,0.75
178,'135933LD',13.8,1,1,2,1,0.95691949,-14.849987,1.1,0.85,1.15,0.75
179,'135934LD',13.8,1,1,2,1,0.96956819,-14.151965,1.1,0.85,1.15,0.75
180,'135935LD',13.8,1,1,2,1,0.96793562,-13.435733,1.1,0.85,1.15,0.75
181,'135937LD',13.8,1,1,2,1,1.00377774,-20.277394,1.1,0.85,1.15,0.75
182,'135938LD',13.8,1,1,2,1,0.94680524,-15.727569,1.1,0.85,1.15,0.75
183,'135941LD',13.8,1,1,2,1,0.94757062,-15.136353,1.1,0.85,1.15,0.75
184,'135946LD',13.8,1,1,2,1,0.95065111,-14.791842,1.1,0.85,1.15,0.75
185,'135947LD',13.8,1,1,2,1,0.94955218,-14.726171,1.1,0.85,1.15,0.75
186,'135948LD',13.8,1,1,2,1,0.9419803,-15.170868,1.1,0.85,1.15,0.75
187,'135949LD',13.8,1,1,2,1,0.94826996,-14.629101,1.1,0.85,1.15,0.75
188,'135951LD',13.8,1,1,2,1,0.98827797,-16.2005,1.1,0.85,1.15,0.75
189,'135954LD',13.8,1,1,2,1,0.96570563,-13.17044,1.1,0.85,1.15,0.75
190,'135956LD',13.8,1,1,2,1,1.03844357,-14.406312,1.1,0.85,1.15,0.75
191,'135959LD',13.8,1,1,2,1,0.98111737,-22.483883,1.1,0.85,1.15,0.75
192,'135961LD',13.8,1,1,2,1,0.97208631,-12.587399,1.1,0.85,1.15,0.75
193,'135962LD',13.8,1,1,2,1,1.0079819,-13.630368,1.1,0.85,1.15,0.75
194,'135964LD',13.8,1,1,2,1,0.98200184,-16.537568,1.1,0.85,1.15,0.75
195,'135965LD',13.8,1,1,2,1,1.01848984,-16.222642,1.1,0.85,1.15,0.75
196,'135966LD',13.8,1,1,2,1,0.97726458,-16.875815,1.1,0.85,1.15,0.75
197,'135967LD',13.8,1,1,2,1,0.96919203,-18.52439,1.1,0.85,1.15,0.75
198,'135968LD',13.8,1,1,2,1,1.03136766,-15.031252,1.1,0.85,1.15,0.75
199,'135969LD',13.8,1,1,2,1,0.97517347,-18.364606,1.1,0.85,1.15,0.75
200,'135984LD',13.8,1,1,2,1,1.02570188,-29.141576,1.1,0.85,1.15,0.75
...
0 / END OF BUS DATA BEGIN LOAD DATA
1,'LD',1,1,2,2.862,1.066,0.0,0.0,0.0,0.0,1,1,0
2,'LD',1,1,2,13.617,6.309,0.0,0.0,0.0,0.0,1,1,0
3,'LD',1,1,2,6.146,2.545,0.0,0.0,0.0,0.0,1,1,0
4,'LD',1,1,2,13.204,5.09,0.0,0.0,0.0,0.0,1,1,0
5,'LD',1,1,2,10.832,2.979,0.0,0.0,0.0,0.0,1,1,0
6,'LD',1,1,2,23.22,6.386,0.0,0.0,0.0,0.0,1,1,0
7,'LD',1,1,2,5.839,2.276,0.0,0.0,0.0,0.0,1,1,0
8,'LD',1,1,2,8.969,2.467,0.0,0.0,0.0,0.0,1,1,0
9,'LD',1,1,2,11.975,3.293,0.0,0.0,0.0,0.0,1,1,0
10,'LD',1,1,2,9.949,2.736,0.0,0.0,0.0,0.0,1,1,0
11,'LD',1,1,2,8.748,2.209,0.0,0.0,0.0,0.0,1,1,0
12,'LD',1,1,2,3.899,1.767,0.0,0.0,0.0,0.0,1,1,0
13,'LD',1,1,2,7.5,3.361,0.0,0.0,0.0,0.0,1,1,0
14,'LD',1,1,2,4.254,1.681,0.0,0.0,0.0,0.0,1,1,0
15,'LD',1,1,2,2.756,1.152,0.0,0.0,0.0,0.0,1,1,0
16,'LD',1,1,2,1.594,0.624,0.0,0.0,0.0,0.0,1,1,0
17,'LD',1,1,2,33.774,9.288,0.0,0.0,0.0,0.0,1,1,0
18,'LD',1,1,2,47.439,13.046,0.0,0.0,0.0,0.0,1,1,0
19,'LD',1,1,2,43.751,12.032,0.0,0.0,0.0,0.0,1,1,0
20,'LD',1,1,2,7.702,3.188,0.0,0.0,0.0,0.0,1,1,0
21,'LD',1,1,2,4.763,1.93,0.0,0.0,0.0,0.0,1,1,0
22,'LD',1,1,2,21.866,8.691,0.0,0.0,0.0,0.0,1,1,0
23,'LD',1,1,2,9.622,4.158,0.0,0.0,0.0,0.0,1,1,0
24,'LD',1,1,2,13.972,5.867,0.0,0.0,0.0,0.0,1,1,0
25,'LD',1,1,2,4.898,2.093,0.0,0.0,0.0,0.0,1,1,0
26,'LD',1,1,2,16.104,6.204,0.0,0.0,0.0,0.0,1,1,0
27,'LD',1,1,2,5.839,2.756,0.0,0.0,0.0,0.0,1,1,0
28,'LD',1,1,2,5.003,2.017,0.0,0.0,0.0,0.0,1,1,0
29,'LD',1,1,2,23.969,5.771,0.0,0.0,0.0,0.0,1,1,0
30,'LD',1,1,2,3.793,1.959,0.0,0.0,0.0,0.0,1,1,0
31,'LD',1,1,2,4.379,2.026,0.0,0.0,0.0,0.0,1,1,0
32,'LD',1,1,2,16.767,4.611,0.0,0.0,0.0,0.0,1,1,0
33,'LD',1,1,2,8.585,3.86,0.0,0.0,0.0,0.0,1,1,0
34,'LD',1,1,2,5.935,2.439,0.0,0.0,0.0,0.0,1,1,0
35,'LD',1,1,2,4.129,1.988,0.0,0.0,0.0,0.0,1,1,0
36,'LD',1,1,2,8.182,3.054,0.0,0.0,0.0,0.0,1,1,0
37,'LD',1,1,2,6.54,2.487,0.0,0.0,0.0,0.0,1,1,0
38,'LD',1,1,2,49.628,18.121,0.0,0.0,0.0,0.0,1,1,0
39,'LD',1,1,2,8.259,3.054,0.0,0.0,0.0,0.0,1,1,0
40,'LD',1,1,2,3.582,1.623,0.0,0.0,0.0,0.0,1,1,0
41,'LD',1,1,2,17.209,4.83,0.0,0.0,0.0,0.0,1,1,0
42,'LD',1,1,2,13.156,4.513,0.0,0.0,0.0,0.0,1,1,0
43,'LD',1,1,2,11.476,4.417,0.0,0.0,0.0,0.0,1,1,0
44,'LD',1,1,2,13.473,4.225,0.0,0.0,0.0,0.0,1,1,0
45,'LD',1,1,2,3.15,1.479,0.0,0.0,0.0,0.0,1,1,0
46,'LD',1,1,2,3.803,1.642,0.0,0.0,0.0,0.0,1,1,0
47,'LD',1,1,2,17.804,5.224,0.0,0.0,0.0,0.0,1,1,0
48,'LD',1,1,2,2.775,1.287,0.0,0.0,0.0,0.0,1,1,0
49,'LD',1,1,2,11.111,5.013,0.0,0.0,0.0,0.0,1,1,0
50,'LD',1,1,2,11.831,5.397,0.0,0.0,0.0,0.0,1,1,0
51,'LD',1,1,2,6.059,2.439,0.0,0.0,0.0,0.0,1,1,0
52,'LD',1,1,2,3.255,1.364,0.0,0.0,0.0,0.0,1,1,0
53,'LD',1,1,2,19.427,8.143,0.0,0.0,0.0,0.0,1,1,0
54,'LD',1,1,2,3.524,1.661,0.0,0.0,0.0,0.0,1,1,0
55,'LD',1,1,2,10.208,3.803,0.0,0.0,0.0,0.0,1,1,0
56,'LD',1,1,2,11.101,4.705,0.0,0.0,0.0,0.0,1,1,0
57,'LD',1,1,2,113.454,31.2,0.0,0.0,0.0,0.0,1,1,0
58,'LD',1,1,2,12.436,5.109,0.0,0.0,0.0,0.0,1,1,0
59,'LD',1,1,2,11.437,4.552,0.0,0.0,0.0,0.0,1,1,0
60,'LD',1,1,2,5.042,2.266,0.0,0.0,0.0,0.0,1,1,0
61,'LD',1,1,2,10.362,4.475,0.0,0.0,0.0,0.0,1,1,0
62,'LD',1,1,2,32.65,15.058,0.0,0.0,0.0,0.0,1,1,0
63,'LD',1,1,2,1.959,0.816,0.0,0.0,0.0,0.0,1,1,0
64,'LD',1,1,2,11.61,4.513,0.0,0.0,0.0,0.0,1,1,0
65,'LD',1,1,2,6.78,2.564,0.0,0.0,0.0,0.0,1,1,0
66,'LD',1,1,2,9.276,3.87,0.0,0.0,0.0,0.0,1,1,0
67,'LD',1,1,2,6.175,2.343,0.0,0.0,0.0,0.0,1,1,0
68,'LD',1,1,2,9.18,3.563,0.0,0.0,0.0,0.0,1,1,0
69,'LD',1,1,2,9.555,3.62,0.0,0.0,0.0,0.0,1,1,0
70,'LD',1,1,2,3.092,1.316,0.0,0.0,0.0,0.0,1,1,0
71,'LD',1,1,2,6.386,2.276,0.0,0.0,0.0,0.0,1,1,0
72,'LD',1,1,2,2.334,1.028,0.0,0.0,0.0,0.0,1,1,0
73,'LD',1,1,2,9.833,4.062,0.0,0.0,0.0,0.0,1,1,0
74,'LD',1,1,2,6.098,2.439,0.0,0.0,0.0,0.0,1,1,0
75,'LD',1,1,2,4.533,1.863,0.0,0.0,0.0,0.0,1,1,0
76,'LD',1,1,2,8.854,4.465,0.0,0.0,0.0,0.0,1,1,0
77,'LD',1,1,2,7.922,3.659,0.0,0.0,0.0,0.0,1,1,0
78,'LD',1,1,2,2.449,1.172,0.0,0.0,0.0,0.0,1,1,0
79,'LD',1,1,2,4.235,2.074,0.0,0.0,0.0,0.0,1,1,0
80,'LD',1,1,2,20.157,6.645,0.0,0.0,0.0,0.0,1,1,0
81,'LD',1,1,2,58.665,16.133,0.0,0.0,0.0,0.0,1,1,0
82,'LD',1,1,2,4.225,1.844,0.0,0.0,0.0,0.0,1,1,0
83,'LD',1,1,2,7.241,3.486,0.0,0.0,0.0,0.0,1,1,0
84,'LD',1,1,2,20.339,10.727,0.0,0.0,0.0,0.0,1,1,0
85,'LD',1,1,2,6.136,2.574,0.0,0.0,0.0,0.0,1,1,0
86,'LD',1,1,2,3.323,1.565,0.0,0.0,0.0,0.0,1,1,0
87,'LD',1,1,2,2.113,0.951,0.0,0.0,0.0,0.0,1,1,0
88,'LD',1,1,2,21.895,7.356,0.0,0.0,0.0,0.0,1,1,0
89,'LD',1,1,2,4.004,1.882,0.0,0.0,0.0,0.0,1,1,0
90,'LD',1,1,2,9.939,4.859,0.0,0.0,0.0,0.0,1,1,0
91,'LD',1,1,2,17.929,4.93,0.0,0.0,0.0,0.0,1,1,0
92,'LD',1,1,2,9.44,3.62,0.0,0.0,0.0,0.0,1,1,0
93,'LD',1,1,2,24.017,7.654,0.0,0.0,0.0,0.0,1,1,0
94,'LD',1,1,2,14.308,5.723,0.0,0.0,0.0,0.0,1,1,0
95,'LD',1,1,2,6.059,2.718,0.0,0.0,0.0,0.0,1,1,0
96,'LD',1,1,2,5.704,2.91,0.0,0.0,0.0,0.0,1,1,0
97,'LD',1,1,2,16.296,6.895,0.0,0.0,0.0,0.0,1,1,0
98,'LD',1,1,2,6.962,2.833,0.0,0.0,0.0,0.0,1,1,0
99,'LD',1,1,2,7.442,3.006,0.0,0.0,0.0,0.0,1,1,0
100,'LD',1,1,2,13.31,5.503,0.0,0.0,0.0,0.0,1,1,0
101,'LD',1,1,2,4.004,1.575,0.0,0.0,0.0,0.0,1,1,0
102,'LD',1,1,2,9.574,4.408,0.0,0.0,0.0,0.0,1,1,0
103,'LD',1,1,2,9.651,4.84,0.0,0.0,0.0,0.0,1,1,0
104,'LD',1,1,2,7.375,3.14,0.0,0.0,0.0,0.0,1,1,0
105,'LD',1,1,2,20.819,5.725,0.0,0.0,0.0,0.0,1,1,0
106,'LD',1,1,2,3.908,1.997,0.0,0.0,0.0,0.0,1,1,0
107,'LD',1,1,2,1.997,0.855,0.0,0.0,0.0,0.0,1,1,0
108,'LD',1,1,2,4.523,1.777,0.0,0.0,0.0,0.0,1,1,0
109,'LD',1,1,2,21.309,8.182,0.0,0.0,0.0,0.0,1,1,0
110,'LD',1,1,2,5.647,1.997,0.0,0.0,0.0,0.0,1,1,0
111,'LD',1,1,2,14.232,5.666,0.0,0.0,0.0,0.0,1,1,0
112,'LD',1,1,2,6.914,3.563,0.0,0.0,0.0,0.0,1,1,0
113,'LD',1,1,2,2.939,1.296,0.0,0.0,0.0,0.0,1,1,0
114,'LD',1,1,2,4.859,2.199,0.0,0.0,0.0,0.0,1,1,0
115,'LD',1,1,2,9.075,3.131,0.0,0.0,0.0,0.0,1,1,0
116,'LD',1,1,2,5.656,2.372,0.0,0.0,0.0,0.0,1,1,0
117,'LD',1,1,2,4.782,2.084,0.0,0.0,0.0,0.0,1,1,0
118,'LD',1,1,2,6.069,2.756,0.0,0.0,0.0,0.0,1,1,0
119,'LD',1,1,2,3.246,1.277,0.0,0.0,0.0,0.0,1,1,0
120,'LD',1,1,2,9.641,4.446,0.0,0.0,0.0,0.0,1,1,0
121,'LD',1,1,2,4.081,2.026,0.0,0.0,0.0,0.0,1,1,0
122,'LD',1,1,2,6.943,3.207,0.0,0.0,0.0,0.0,1,1,0
123,'LD',1,1,2,1.719,0.768,0.0,0.0,0.0,0.0,1,1,0
124,'LD',1,1,2,1.719,0.883,0.0,0.0,0.0,0.0,1,1,0
125,'LD',1,1,2,2.449,1.028,0.0,0.0,0.0,0.0,1,1,0
126,'LD',1,1,2,16.479,7.087,0.0,0.0,0.0,0.0,1,1,0
127,'LD',1,1,2,13.953,7.039,0.0,0.0,0.0,0.0,1,1,0
128,'LD',1,1,2,5.051,2.516,0.0,0.0,0.0,0.0,1,1,0
129,'LD',1,1,2,8.451,4.225,0.0,0.0,0.0,0.0,1,1,0
130,'LD',1,1,2,8.326,3.524,0.0,0.0,0.0,0.0,1,1,0
131,'LD',1,1,2,28.972,7.967,0.0,0.0,0.0,0.0,1,1,0
132,'LD',1,1,2,8.595,3.956,0.0,0.0,0.0,0.0,1,1,0
133,'LD',1,1,2,26.072,7.17,0.0,0.0,0.0,0.0,1,1,0
134,'LD',1,1,2,35.762,9.834,0.0,0.0,0.0,0.0,1,1,0
135,'LD',1,1,2,36.549,10.051,0.0,0.0,0.0,0.0,1,1,0
136,'LD',1,1,2,29.577,8.134,0.0,0.0,0.0,0.0,1,1,0
137,'LD',1,1,2,11.552,4.033,0.0,0.0,0.0,0.0,1,1,0
138,'LD',1,1,2,56.696,15.591,0.0,0.0,0.0,0.0,1,1,0
139,'LD',1,1,2,3.457,1.767,0.0,0.0,0.0,0.0,1,1,0
140,'LD',1,1,2,6.059,2.612,0.0,0.0,0.0,0.0,1,1,0
141,'LD',1,1,2,73.088,20.099,0.0,0.0,0.0,0.0,1,1,0
142,'LD',1,1,2,26.091,7.175,0.0,0.0,0.0,0.0,1,1,0
143,'LD',1,1,2,4.638,2.257,0.0,0.0,0.0,0.0,1,1,0
144,'LD',1,1,2,5.762,2.631,0.0,0.0,0.0,0.0,1,1,0
145,'LD',1,1,2,3.793,1.767,0.0,0.0,0.0,0.0,1,1,0
146,'LD',1,1,2,12.734,5.09,0.0,0.0,0.0,0.0,1,1,0
147,'LD',1,1,2,5.07,2.18,0.0,0.0,0.0,0.0,1,1,0
148,'LD',1,1,2,7.135,2.833,0.0,0.0,0.0,0.0,1,1,0
149,'LD',1,1,2,4.859,1.844,0.0,0.0,0.0,0.0,1,1,0
150,'LD',1,1,2,30.442,8.371,0.0,0.0,0.0,0.0,1,1,0
151,'LD',1,1,2,4.139,1.661,0.0,0.0,0.0,0.0,1,1,0
152,'LD',1,1,2,1.834,0.912,0.0,0.0,0.0,0.0,1,1,0
153,'LD',1,1,2,3.39,1.546,0.0,0.0,0.0,0.0,1,1,0
154,'LD',1,1,2,8.748,3.726,0.0,0.0,0.0,0.0,1,1,0
155,'LD',1,1,2,3.755,1.892,0.0,0.0,0.0,0.0,1,1,0
156,'LD',1,1,2,61.267,16.848,0.0,0.0,0.0,0.0,1,1,0
157,'LD',1,1,2,2.276,0.912,0.0,0.0,0.0,0.0,1,1,0
158,'LD',1,1,2,6.991,3.351,0.0,0.0,0.0,0.0,1,1,0
159,'LD',1,1,2,8.038,4.043,0.0,0.0,0.0,0.0,1,1,0
160,'LD',1,1,2,3.275,1.373,0.0,0.0,0.0,0.0,1,1,0
161,'LD',1,1,2,20.272,5.575,0.0,0.0,0.0,0.0,1,1,0
162,'LD',1,1,2,2.641,1.258,0.0,0.0,0.0,0.0,1,1,0
163,'LD',1,1,2,4.504,2.228,0.0,0.0,0.0,0.0,1,1,0
164,'LD',1,1,2,8.278,4.264,0.0,0.0,0.0,0.0,1,1,0
165,'LD',1,1,2,6.463,3.265,0.0,0.0,0.0,0.0,1,1,0
166,'LD',1,1,2,3.236,1.46,0.0,0.0,0.0,0.0,1,1,0
167,'LD',1,1,2,9.987,4.427,0.0,0.0,0.0,0.0,1,1,0
168,'LD',1,1,2,9.661,4.667,0.0,0.0,0.0,0.0,1,1,0
169,'LD',1,1,2,15.182,4.175,0.0,0.0,0.0,0.0,1,1,0
170,'LD',1,1,2,9.603,4.081,0.0,0.0,0.0,0.0,1,1,0
171,'LD',1,1,2,9.411,4.85,0.0,0.0,0.0,0.0,1,1,0
172,'LD',1,1,2,6.78,2.785,0.0,0.0,0.0,0.0,1,1,0
173,'LD',1,1,2,10.669,4.734,0.0,0.0,0.0,0.0,1,1,0
174,'LD',1,1,2,7.289,2.641,0.0,0.0,0.0,0.0,1,1,0
175,'LD',1,1,2,4.004,1.729,0.0,0.0,0.0,0.0,1,1,0
176,'LD',1,1,2,13.396,5.397,0.0,0.0,0.0,0.0,1,1,0
177,'LD',1,1,2,4.6,2.017,0.0,0.0,0.0,0.0,1,1,0
178,'LD',1,1,2,8.316,3.688,0.0,0.0,0.0,0.0,1,1,0
179,'LD',1,1,2,7.721,2.41,0.0,0.0,0.0,0.0,1,1,0
180,'LD',1,1,2,5.551,2.468,0.0,0.0,0.0,0.0,1,1,0
181,'LD',1,1,2,20.877,5.741,0.0,0.0,0.0,0.0,1,1,0
182,'LD',1,1,2,7.519,3.111,0.0,0.0,0.0,0.0,1,1,0
183,'LD',1,1,2,6.953,2.9,0.0,0.0,0.0,0.0,1,1,0
184,'LD',1,1,2,6.376,2.622,0.0,0.0,0.0,0.0,1,1,0
185,'LD',1,1,2,6.242,2.977,0.0,0.0,0.0,0.0,1,1,0
186,'LD',1,1,2,8.844,4.35,0.0,0.0,0.0,0.0,1,1,0
187,'LD',1,1,2,7.183,3.351,0.0,0.0,0.0,0.0,1,1,0
188,'LD',1,1,2,12.234,3.364,0.0,0.0,0.0,0.0,1,1,0
189,'LD',1,1,2,5.81,2.67,0.0,0.0,0.0,0.0,1,1,0
190,'LD',1,1,2,9.737,4.235,0.0,0.0,0.0,0.0,1,1,0
191,'LD',1,1,2,44.702,12.293,0.0,0.0,0.0,0.0,1,1,0
192,'LD',1,1,2,5.618,2.794,0.0,0.0,0.0,0.0,1,1,0
193,'LD',1,1,2,9.862,3.476,0.0,0.0,0.0,0.0,1,1,0
194,'LD',1,1,2,17.084,4.698,0.0,0.0,0.0,0.0,1,1,0
195,'LD',1,1,2,15.336,5.599,0.0,0.0,0.0,0.0,1,1,0
196,'LD',1,1,2,18.611,5.118,0.0,0.0,0.0,0.0,1,1,0
197,'LD',1,1,2,22.068,6.069,0.0,0.0,0.0,0.0,1,1,0
198,'LD',1,1,2,10.986,3.966,0.0,0.0,0.0,0.0,1,1,0
199,'LD',1,1,2,27.849,7.658,0.0,0.0,0.0,0.0,1,1,0
200,'LD',1,1,2,12.897,4.994,0.0,0.0,0.0,0.0,1,1,0
...
0 / END OF LOAD DATA BEGIN FIXED SHUNT DATA
811,'TM',1,0.0,200.0
1765,'BS',1,0.0,9.0
2061,'BS',1,0.0,9.0
4124,'DT',1,0.0,0.0
4124,'DU',1,0.0,0.0
6242,'TM',1,0.0,200.0
7825,'1',1,0.0,400.0
0 / END OF FIXED SHUNT DATA BEGIN GENERATOR DATA
987,'U8',0.0,0.0,168.6,-90.7,1.0647,0,100.0,0.0,1.0,0.0,0.0,1.0,0,100.0,272.0,130.0,1,1.0,0,1.0,0,1.0,0,1.0,0,1.0
987,'U9',0.0,0.0,121.0,-65.1,1.0647,0,100.0,0.0,1.0,0.0,0.0,1.0,0,100.0,195.2,141.0,1,1.0,0,1.0,0,1.0,0,1.0,0,1.0
988,'U8',0.0,0.0,49.6,-26.7,1.09349,0,100.0,0.0,1.0,0.0,0.0,1.0,0,100.0,80.0,66.0,1,1.0,0,1.0,0,1.0,0,1.0,0,1.0
988,'U9',0.0,0.0,49.6,-26.7,1.09349,0,100.0,0.0,1.0,0.0,0.0,1.0,0,100.0,80.0,66.0,1,1.0,0,1.0,0,1.0,0,1.0,0,1.0
989,'U6',0.0,0.0,28.8,-19.8,1.05588,0,100.0,0.0,1.0,0.0,0.0,1.0,0,100.0,59.5,10.0,1,1.0,0,1.0,0,1.0,0,1.0,0,1.0
989,'U7',0.0,0.0,28.8,-19.8,1.05588,0,100.0,0.0,1.0,0.0,0.0,1.0,0,100.0,59.5,10.0,1,1.0,0,1.0,0,1.0,0,1.0,0,1.0
989,'U8',0.0,0.0,28.8,-19.8,1.05588,0,100.0,0.0,1.0,0.0,0.0,1.0,0,100.0,59.5,10.0,1,1.0,0,1.0,0,1.0,0,1.0,0,1.0
989,'U9',0.0,0.0,28.8,-19.8,1.05588,0,100.0,0.0,1.0,0.0,0.0,1.0,0,100.0,59.5,10.0,1,1.0,0,1.0,0,1.0,0,1.0,0,1.0
990,'U8',32.535,2.548,17.0,-11.7,1.08006,0,100.0,0.0,1.0,0.0,0.0,1.0,1,100.0,35.1,23.3,1,1.0,0,1.0,0,1.0,0,1.0,0,1.0
990,'U9',34.047,2.548,17.0,-11.7,1.08006,0,100.0,0.0,1.0,0.0,0.0,1.0,1,100.0,35.1,23.0,1,1.0,0,1.0,0,1.0,0,1.0,0,1.0
991,'18',22.23,17.109,17.3,-7.7,1.09223,0,100.0,0.0,1.0,0.0,0.0,1.0,1,100.0,23.0,21.0,1,1.0,0,1.0,0,1.0,0,1.0,0,1.0
991,'19',22.23,17.109,17.3,-7.7,1.09223,0,100.0,0.0,1.0,0.0,0.0,1.0,1,100.0,23.0,21.0,1,1.0,0,1.0,0,1.0,0,1.0,0,1.0
991,'20',22.23,17.109,17.3,-7.7,1.09223,0,100.0,0.0,1.0,0.0,0.0,1.0,1,100.0,23.0,21.0,1,1.0,0,1.0,0,1.0,0,1.0,0,1.0
991,'21',22.23,17.109,17.3,-7.7,1.09223,0,100.0,0.0,1.0,0.0,0.0,1.0,1,100.0,23.0,21.0,1,1.0,0,1.0,0,1.0,0,1.0,0,1.0
991,'U2',52.68,17.109,26.2,-18.0,1.09223,0,100.0,0.0,1.0,0.0,0.0,1.0,1,100.0,54.0,50.0,1,1.0,0,1.0,0,1.0,0,1.0,0,1.0
991,'U3',52.68,17.109,26.2,-18.0,1.09223,0,100.0,0.0,1.0,0.0,0.0,1.0,1,100.0,54.0,50.0,1,1.0,0,1.0,0,1.0,0,1.0,0,1.0
991,'U4',23.626,12.2,12.2,-8.4,1.09223,0,100.0,0.0,1.0,0.0,0.0,1.0,1,100.0,25.2,22.0,1,1.0,0,1.0,0,1.0,0,1.0,0,1.0
991,'U5',24.756,14.1,14.1,-9.7,1.09223,0,100.0,0.0,1.0,0.0,0.0,1.0,1,100.0,29.2,22.0,1,1.0,0,1.0,0,1.0,0,1.0,0,1.0
991,'U6',20.631,12.2,12.2,-8.4,1.09223,0,100.0,0.0,1.0,0.0,0.0,1.0,1,100.0,25.2,18.0,1,1.0,0,1.0,0,1.0,0,1.0,0,1.0
991,'U7',23.732,15.0,15.0,-10.3,1.09223,0,100.0,0.0,1.0,0.0,0.0,1.0,1,100.0,30.9,20.0,1,1.0,0,1.0,0,1.0,0,1.0,0,1.0
991,'U8',23.732,15.0,15.0,-10.3,1.09223,0,100.0,0.0,1.0,0.0,0.0,1.0,1,100.0,30.9,20.0,1,1.0,0,1.0,0,1.0,0,1.0,0,1.0
991,'U9',23.732,15.0,15.0,-10.3,1.09223,0,100.0,0.0,1.0,0.0,0.0,1.0,1,100.0,30.9,20.0,1,1.0,0,1.0,0,1.0,0,1.0,0,1.0
992,'U1',1151.76,327.448,378.6,-378.6,1.01263,0,100.0,0.0,1.0,0.0,0.0,1.0,1,100.0,1152.0,1100.8,1,1.0,0,1.0,0,1.0,0,1.0,0,1.0
993,'U1',250.0,78.448,550.5,-296.1,1.08608,0,100.0,0.0,1.0,0.0,0.0,1.0,1,100.0,888.2,250.0,1,1.0,0,1.0,0,1.0,0,1.0,0,1.0
994,'U1',705.5,228.883,437.2,-235.2,1.01793,0,100.0,0.0,1.0,0.0,0.0,1.0,1,100.0,705.5,300.0,1,1.0,0,1.0,0,1.0,0,1.0,0,1.0
995,'U1',64.0,27.102,95.97,-54.5,0.95838,0,100.0,0.0,1.0,0.0,0.0,1.0,1,100.0,163.5,64.0,1,1.0,0,1.0,0,1.0,0,1.0,0,1.0
996,'U1',55.0,25.208,94.9,-51.0,1.08273,0,100.0,0.0,1.0,0.0,0.0,1.0,1,100.0,153.1,55.0,1,1.0,0,1.0,0,1.0,0,1.0,0,1.0
997,'U1',122.412,59.382,151.7,-81.6,1.07437,0,100.0,0.0,1.0,0.0,0.0,1.0,1,100.0,244.8,70.0,1,1.0,0,1.0,0,1.0,0,1.0,0,1.0
998,'U1',72.083,17.704,49.6,-26.7,1.0985,0,100.0,0.0,1.0,0.0,0.0,1.0,1,100.0,80.0,66.0,1,1.0,0,1.0,0,1.0,0,1.0,0,1.0
999,'U1',186.821,-4.361,160.1,-86.1,1.03144,0,100.0,0.0,1.0,0.0,0.0,1.0,1,100.0,258.4,175.0,1,1.0,0,1.0,0,1.0,0,1.0,0,1.0
1000,'U1',184.822,93.867,141.9,-76.3,1.04619,0,100.0,0.0,1.0,0.0,0.0,1.0,1,100.0,229.0,160.0,1,1.0,0,1.0,0,1.0,0,1.0,0,1.0
1001,'U1',100.228,-15.068,130.8,-90.0,1.07172,0,100.0,0.0,1.0,0.0,0.0,1.0,1,100.0,270.0,30.0,1,1.0,0,1.0,0,1.0,0,1.0,0,1.0
1002,'U1',100.228,114.283,202.5,-90.0,1.03149,0,100.0,0.0,1.0,0.0,0.0,1.0,1,100.0,270.0,30.0,1,1.0,0,1.0,0,1.0,0,1.0,0,1.0
1003,'U1',112.76,8.74,174.7,-94.0,1.08248,0,100.0,0.0,1.0,0.0,0.0,1.0,1,100.0,281.9,112.76,1,1.0,0,1.0,0,1.0,0,1.0,0,1.0
1004,'U1',99.125,17.299,96.9,-66.7,1.06761,0,100.0,0.0,1.0,0.0,0.0,1.0,1,100.0,200.0,56.0,1,1.0,0,1.0,0,1.0,0,1.0,0,1.0
1005,'U1',100.933,110.616,115.9,-62.3,1.01156,0,100.0,0.0,1.0,0.0,0.0,1.0,1,100.0,187.0,85.0,1,1.0,0,1.0,0,1.0,0,1.0,0,1.0
1006,'U1',134.034,6.78,114.7,-61.7,1.07489,0,100.0,0.0,1.0,0.0,0.0,1.0,1,100.0,185.0,108.72,1,1.0,0,1.0,0,1.0,0,1.0,0,1.0
1007,'U1',119.561,22.932,88.7,-61.0,0.99932,0,100.0,0.0,1.0,0.0,0.0,1.0,1,100.0,183.1,90.0,1,1.0,0,1.0,0,1.0,0,1.0,0,1.0
1008,'U1',118.383,22.976,86.7,-59.7,1.00025,0,100.0,0.0,1.0,0.0,0.0,1.0,1,100.0,179.0,90.0,1,1.0,0,1.0,0,1.0,0,1.0,0,1.0
1009,'U1',102.111,61.085,68.1,-46.9,1.07059,0,100.0,0.0,1.0,0.0,0.0,1.0,1,100.0,140.6,54.83,1,1.0,0,1.0,0,1.0,0,1.0,0,1.0
1010,'U1',120.825,-41.563,116.2,-62.5,0.95542,0,100.0,0.0,1.0,0.0,0.0,1.0,1,100.0,187.5,90.0,1,1.0,0,1.0,0,1.0,0,1.0,0,1.0
1011,'U1',65.0,60.27,70.0,-37.7,1.02891,0,100.0,0.0,1.0,0.0,0.0,1.0,1,100.0,113.0,65.0,1,1.0,0,1.0,0,1.0,0,1.0,0,1.0
1012,'U1',81.749,49.341,50.9,-27.4,1.03492,0,100.0,0.0,1.0,0.0,0.0,1.0,1,100.0,82.2,80.0,1,1.0,0,1.0,0,1.0,0,1.0,0,1.0
1013,'U1',87.746,41.912,43.8,-30.2,1.00071,0,100.0,0.0,1.0,0.0,0.0,1.0,1,100.0,90.5,83.0,1,1.0,0,1.0,0,1.0,0,1.0,0,1.0
1014,'U1',9.768,15.397,16.2,-8.7,1.03105,0,100.0,0.0,1.0,0.0,0.0,1.0,1,100.0,26.13,3.0,1,1.0,0,1.0,0,1.0,0,1.0,0,1.0
1015,'U1',40.655,38.008,42.8,-23.0,0.99666,0,100.0,0.0,1.0,0.0,0.0,1.0,1,100.0,69.0,28.0,1,1.0,0,1.0,0,1.0,0,1.0,0,1.0
1016,'U1',65.144,25.529,32.7,-22.5,1.01644,0,100.0,0.0,1.0,0.0,0.0,1.0,1,100.0,67.5,61.5,1,1.0,0,1.0,0,1.0,0,1.0,0,1.0
1017,'U1',48.72,0.293,32.0,-22.0,1.07373,0,100.0,0.0,1.0,0.0,0.0,1.0,1,100.0,66.0,40.0,1,1.0,0,1.0,0,1.0,0,1.0,0,1.0
1018,'U1',29.995,27.3,27.3,-18.4,1.03023,0,100.0,0.0,1.0,0.0,0.0,1.0,1,100.0,55.2,19.0,1,1.0,0,1.0,0,1.0,0,1.0,0,1.0
1019,'U1',53.9,21.947,23.0,-23.0,1.00276,0,100.0,0.0,1.0,0.0,0.0,1.0,1,100.0,53.9,52.0,1,1.0,0,1.0,0,1.0,0,1.0,0,1.0
1020,'U1',0.0,0.0,24.9,-17.2,0.99577,0,100.0,0.0,1.0,0.0,0.0,1.0,0,100.0,51.5,50.0,1,1.0,0,1.0,0,1.0,0,1.0,0,1.0
1021,'U1',42.034,16.264,16.5,-16.5,1.02025,0,100.0,0.0,1.0,0.0,0.0,1.0,1,100.0,50.2,40.8,1,1.0,0,1.0,0,1.0,0,1.0,0,1.0
1022,'U1',0.0,0.0,37.0,-16.4,0.98911,0,100.0,0.0,1.0,0.0,0.0,1.0,0,100.0,49.3,10.0,1,1.0,0,1.0,0,1.0,0,1.0,0,1.0
1023,'U1',12.889,23.2,23.2,-16.0,1.02278,0,100.0,0.0,1.0,0.0,0.0,1.0,1,100.0,48.0,5.0,1,1.0,0,1.0,0,1.0,0,1.0,0,1.0
1024,'U1',42.481,19.008,20.7,-14.2,1.0068,0,100.0,0.0,1.0,0.0,0.0,1.0,1,100.0,42.7,41.8,1,1.0,0,1.0,0,1.0,0,1.0,0,1.0
1025,'U1',4.67,9.53,9.53,-4.53,1.00403,0,100.0,0.0,1.0,0.0,0.0,1.0,1,100.0,13.63,4.67,1,1.0,0,1.0,0,1.0,0,1.0,0,1.0
1026,'U1',34.812,13.194,13.3,-13.3,1.00868,0,100.0,0.0,1.0,0.0,0.0,1.0,1,100.0,40.5,34.0,1,1.0,0,1.0,0,1.0,0,1.0,0,1.0
1027,'U1',17.588,16.778,19.6,-13.5,1.02771,0,100.0,0.0,1.0,0.0,0.0,1.0,1,100.0,40.5,8.0,1,1.0,0,1.0,0,1.0,0,1.0,0,1.0
1028,'U1',6.157,-0.288,4.12,-2.15,0.99103,0,100.0,0.0,1.0,0.0,0.0,1.0,1,100.0,6.43,6.15,1,1.0,0,1.0,0,1.0,0,1.0,0,1.0
1029,'U1',18.185,17.489,23.2,-12.5,0.98878,0,100.0,0.0,1.0,0.0,0.0,1.0,1,100.0,37.4,10.0,1,1.0,0,1.0,0,1.0,0,1.0,0,1.0
1030,'U1',18.0,20.795,22.1,-11.9,1.0346,0,100.0,0.0,1.0,0.0,0.0,1.0,1,100.0,35.7,18.0,1,1.0,0,1.0,0,1.0,0,1.0,0,1.0
1031,'U1',34.047,7.796,17.0,-11.7,1.0987,0,100.0,0.0,1.0,0.0,0.0,1.0,1,100.0,35.1,27.6,1,1.0,0,1.0,0,1.0,0,1.0,0,1.0
1032,'U1',27.536,11.1,11.1,-11.1,1.02112,0,100.0,0.0,1.0,0.0,0.0,1.0,1,100.0,33.7,24.0,1,1.0,0,1.0,0,1.0,0,1.0,0,1.0
1033,'U1',7.572,8.519,8.85,-5.25,1.05372,0,100.0,0.0,1.0,0.0,0.0,1.0,1,100.0,15.75,4.1,1,1.0,0,1.0,0,1.0,0,1.0,0,1.0
1034,'U1',29.36,7.412,14.3,-9.8,1.00493,0,100.0,0.0,1.0,0.0,0.0,1.0,1,100.0,29.5,29.0,1,1.0,0,1.0,0,1.0,0,1.0,0,1.0
1035,'U1',24.979,12.499,14.1,-9.7,0.99526,0,100.0,0.0,1.0,0.0,0.0,1.0,1,100.0,29.2,22.3,1,1.0,0,1.0,0,1.0,0,1.0,0,1.0
1036,'U1',27.936,11.16,13.9,-9.6,0.99778,0,100.0,0.0,1.0,0.0,0.0,1.0,1,100.0,28.8,14.6,1,1.0,0,1.0,0,1.0,0,1.0,0,1.0
1037,'U1',0.0,0.0,9.4,-4.15,1.00665,0,100.0,0.0,1.0,0.0,0.0,1.0,0,100.0,12.5,3.0,1,1.0,0,1.0,0,1.0,0,1.0,0,1.0
1038,'U1',25.0,12.007,14.7,-8.3,1.02271,0,100.0,0.0,1.0,0.0,0.0,1.0,1,100.0,25.0,25.0,1,1.0,0,1.0,0,1.0,0,1.0,0,1.0
1039,'U1',23.576,12.0,12.0,-12.0,1.01116,0,100.0,0.0,1.0,0.0,0.0,1.0,1,100.0,25.0,23.5,1,1.0,0,1.0,0,1.0,0,1.0,0,1.0
1040,'U1',0.0,0.0,15.5,-8.3,1.02103,0,100.0,0.0,1.0,0.0,0.0,1.0,0,100.0,25.0,13.0,1,1.0,0,1.0,0,1.0,0,1.0,0,1.0
1041,'U1',23.682,10.334,11.8,-8.1,0.99434,0,100.0,0.0,1.0,0.0,0.0,1.0,1,100.0,24.3,22.4,1,1.0,0,1.0,0,1.0,0,1.0,0,1.0
1042,'U1',53.603,24.461,26.2,-18.0,1.09407,0,100.0,0.0,1.0,0.0,0.0,1.0,1,100.0,54.0,51.2,1,1.0,0,1.0,0,1.0,0,1.0,0,1.0
1043,'U1',17.049,6.7,6.7,-6.7,1.00646,0,100.0,0.0,1.0,0.0,0.0,1.0,1,100.0,20.5,15.0,1,1.0,0,1.0,0,1.0,0,1.0,0,1.0
1044,'U1',49.7,11.571,37.5,-16.7,1.01091,0,100.0,0.0,1.0,0.0,0.0,1.0,1,100.0,50.0,48.8,1,1.0,0,1.0,0,1.0,0,1.0,0,1.0
1045,'U1',20.0,7.432,8.5,-8.5,0.97221,0,100.0,0.0,1.0,0.0,0.0,1.0,1,100.0,20.0,5.0,1,1.0,0,1.0,0,1.0,0,1.0,0,1.0
1046,'U1',28.69,2.51,15.85,-9.62,1.07884,0,100.0,0.0,1.0,0.0,0.0,1.0,1,100.0,28.83,28.69,1,1.0,0,1.0,0,1.0,0,1.0,0,1.0
1047,'U1',30.062,24.7,24.7,-13.3,1.04903,0,100.0,0.0,1.0,0.0,0.0,1.0,1,100.0,39.9,25.0,1,1.0,0,1.0,0,1.0,0,1.0,0,1.0
1048,'U1',75.0,45.1,45.1,-25.0,1.0314,0,100.0,0.0,1.0,0.0,0.0,1.0,1,100.0,75.0,75.0,1,1.0,0,1.0,0,1.0,0,1.0,0,1.0
1049,'U1',46.9,23.147,24.0,-15.6,1.00438,0,100.0,0.0,1.0,0.0,0.0,1.0,1,100.0,46.9,45.0,1,1.0,0,1.0,0,1.0,0,1.0,0,1.0
1050,'U2',1151.77,327.386,455.3,-455.3,1.01263,0,100.0,0.0,1.0,0.0,0.0,1.0,1,100.0,1152.0,1103.0,1,1.0,0,1.0,0,1.0,0,1.0,0,1.0
1051,'U2',0.0,0.0,550.5,-296.1,1.0815,0,100.0,0.0,1.0,0.0,0.0,1.0,0,100.0,888.2,250.0,1,1.0,0,1.0,0,1.0,0,1.0,0,1.0
1052,'U2',425.881,221.101,437.2,-235.2,1.01793,0,100.0,0.0,1.0,0.0,0.0,1.0,1,100.0,705.5,300.0,1,1.0,0,1.0,0,1.0,0,1.0,0,1.0
1053,'U2',64.0,27.102,95.97,-54.5,0.95838,0,100.0,0.0,1.0,0.0,0.0,1.0,1,100.0,163.5,64.0,1,1.0,0,1.0,0,1.0,0,1.0,0,1.0
1054,'10',131.0,25.189,121.0,-65.1,1.07924,0,100.0,0.0,1.0,0.0,0.0,1.0,1,100.0,195.2,131.0,1,1.0,0,1.0,0,1.0,0,1.0,0,1.0
1055,'U2',794.264,68.204,590.0,-317.3,1.07859,0,100.0,0.0,1.0,0.0,0.0,1.0,1,100.0,952.0,700.0,1,1.0,0,1.0,0,1.0,0,1.0,0,1.0
1056,'10',159.178,15.805,166.8,-89.7,1.08272,0,100.0,0.0,1.0,0.0,0.0,1.0,1,100.0,269.2,110.0,1,1.0,0,1.0,0,1.0,0,1.0,0,1.0
1057,'U2',186.821,-4.361,160.1,-86.1,1.03144,0,100.0,0.0,1.0,0.0,0.0,1.0,1,100.0,258.4,175.0,1,1.0,0,1.0,0,1.0,0,1.0,0,1.0
1058,'U2',73.53,54.57,54.8,-29.5,1.09283,0,100.0,0.0,1.0,0.0,0.0,1.0,1,100.0,88.4,64.7,1,1.0,0,1.0,0,1.0,0,1.0,0,1.0
1059,'U2',109.667,42.726,130.6,-70.3,1.09846,0,100.0,0.0,1.0,0.0,0.0,1.0,1,100.0,210.8,66.0,1,1.0,0,1.0,0,1.0,0,1.0,0,1.0
1060,'U2',107.949,137.478,157.5,-70.0,1.03189,0,100.0,0.0,1.0,0.0,0.0,1.0,1,100.0,210.0,64.0,1,1.0,0,1.0,0,1.0,0,1.0,0,1.0
1061,'U2',112.76,8.74,174.7,-94.0,1.08248,0,100.0,0.0,1.0,0.0,0.0,1.0,1,100.0,281.9,112.76,1,1.0,0,1.0,0,1.0,0,1.0,0,1.0
1062,'10',0.0,0.0,28.8,-19.8,1.08808,0,100.0,0.0,1.0,0.0,0.0,1.0,0,100.0,59.5,10.0,1,1.0,0,1.0,0,1.0,0,1.0,0,1.0
1063,'U2',100.933,110.616,115.9,-62.3,1.01156,0,100.0,0.0,1.0,0.0,0.0,1.0,1,100.0,187.0,85.0,1,1.0,0,1.0,0,1.0,0,1.0,0,1.0
1064,'U2',133.922,6.78,114.7,-61.7,1.07489,0,100.0,0.0,1.0,0.0,0.0,1.0,1,100.0,185.0,108.57,1,1.0,0,1.0,0,1.0,0,1.0,0,1.0
1065,'U2',119.561,22.932,88.7,-61.0,0.99932,0,100.0,0.0,1.0,0.0,0.0,1.0,1,100.0,183.1,90.0,1,1.0,0,1.0,0,1.0,0,1.0,0,1.0
1066,'U2',118.383,22.976,86.7,-59.7,1.00025,0,100.0,0.0,1.0,0.0,0.0,1.0,1,100.0,179.0,90.0,1,1.0,0,1.0,0,1.0,0,1.0,0,1.0
1067,'U2',127.842,62.11,68.1,-46.9,1.07059,0,100.0,0.0,1.0,0.0,0.0,1.0,1,100.0,140.6,54.83,1,1.0,0,1.0,0,1.0,0,1.0,0,1.0
1068,'U2',121.659,-41.53,118.0,-63.5,0.95542,0,100.0,0.0,1.0,0.0,0.0,1.0,1,100.0,190.4,90.0,1,1.0,0,1.0,0,1.0,0,1.0,0,1.0
1069,'U2',80.822,60.472,70.0,-37.7,1.02891,0,100.0,0.0,1.0,0.0,0.0,1.0,1,100.0,113.0,65.0,1,1.0,0,1.0,0,1.0,0,1.0,0,1.0
1070,'U2',96.309,49.407,60.1,-32.3,1.03044,0,100.0,0.0,1.0,0.0,0.0,1.0,1,100.0,97.0,92.0,1,1.0,0,1.0,0,1.0,0,1.0,0,1.0
1071,'U2',87.746,41.912,43.8,-30.2,1.00071,0,100.0,0.0,1.0,0.0,0.0,1.0,1,100.0,90.5,83.0,1,1.0,0,1.0,0,1.0,0,1.0,0,1.0
1072,'U2',9.768,15.397,16.2,-8.7,1.03105,0,100.0,0.0,1.0,0.0,0.0,1.0,1,100.0,26.13,3.0,1,1.0,0,1.0,0,1.0,0,1.0,0,1.0
1073,'U2',40.655,38.008,42.8,-23.0,0.99666,0,100.0,0.0,1.0,0.0,0.0,1.0,1,100.0,69.0,28.0,1,1.0,0,1.0,0,1.0,0,1.0,0,1.0
1074,'U2',65.144,25.529,32.7,-22.5,1.01644,0,100.0,0.0,1.0,0.0,0.0,1.0,1,100.0,67.5,61.5,1,1.0,0,1.0,0,1.0,0,1.0,0,1.0
1075,'U2',171.955,9.849,114.3,-78.7,1.07452,0,100.0,0.0,1.0,0.0,0.0,1.0,1,100.0,236.0,140.0,1,1.0,0,1.0,0,1.0,0,1.0,0,1.0
1076,'U2',0.0,0.0,23.7,-12.7,1.04301,0,100.0,0.0,1.0,0.0,0.0,1.0,0,100.0,38.2,17.0,1,1.0,0,1.0,0,1.0,0,1.0,0,1.0
1077,'U2',0.0,0.0,24.9,-17.2,0.99577,0,100.0,0.0,1.0,0.0,0.0,1.0,0,100.0,51.5,50.0,1,1.0,0,1.0,0,1.0,0,1.0,0,1.0
1078,'U2',42.034,16.264,16.5,-16.5,1.02025,0,100.0,0.0,1.0,0.0,0.0,1.0,1,100.0,50.2,40.8,1,1.0,0,1.0,0,1.0,0,1.0,0,1.0
1079,'U2',0.0,0.0,37.0,-16.4,0.98911,0,100.0,0.0,1.0,0.0,0.0,1.0,0,100.0,49.3,10.0,1,1.0,0,1.0,0,1.0,0,1.0,0,1.0
1080,'U2',5.0,33.4,33.4,-23.0,1.01317,0,100.0,0.0,1.0,0.0,0.0,1.0,1,100.0,69.0,5.0,1,1.0,0,1.0,0,1.0,0,1.0,0,1.0
1081,'U2',42.466,19.007,20.7,-14.2,1.0068,0,100.0,0.0,1.0,0.0,0.0,1.0,1,100.0,42.7,41.6,1,1.0,0,1.0,0,1.0,0,1.0,0,1.0
1082,'U2',4.67,9.53,9.53,-4.53,1.00403,0,100.0,0.0,1.0,0.0,0.0,1.0,1,100.0,13.63,4.67,1,1.0,0,1.0,0,1.0,0,1.0,0,1.0
1083,'U2',34.812,13.194,13.3,-13.3,1.00868,0,100.0,0.0,1.0,0.0,0.0,1.0,1,100.0,40.5,34.0,1,1.0,0,1.0,0,1.0,0,1.0,0,1.0
1084,'U2',21.605,16.822,30.6,-16.4,1.01407,0,100.0,0.0,1.0,0.0,0.0,1.0,1,100.0,49.3,10.0,1,1.0,0,1.0,0,1.0,0,1.0,0,1.0
1085,'U2',6.157,-0.288,4.12,-2.15,0.99103,0,100.0,0.0,1.0,0.0,0.0,1.0,1,100.0,6.43,6.15,1,1.0,0,1.0,0,1.0,0,1.0,0,1.0
1086,'U2',18.932,17.483,24.8,-13.3,0.98879,0,100.0,0.0,1.0,0.0,0.0,1.0,1,100.0,40.0,10.0,1,1.0,0,1.0,0,1.0,0,1.0,0,1.0
1087,'U2',52.8,36.461,37.8,-20.3,1.04347,0,100.0,0.0,1.0,0.0,0.0,1.0,1,100.0,61.0,20.0,1,1.0,0,1.0,0,1.0,0,1.0,0,1.0
1088,'10',42.324,7.81,21.1,-14.5,1.09777,0,100.0,0.0,1.0,0.0,0.0,1.0,1,100.0,43.6,28.0,1,1.0,0,1.0,0,1.0,0,1.0,0,1.0
1089,'U2',27.536,11.1,11.1,-11.1,1.02112,0,100.0,0.0,1.0,0.0,0.0,1.0,1,100.0,33.7,24.0,1,1.0,0,1.0,0,1.0,0,1.0,0,1.0
1090,'U2',7.572,8.519,8.85,-5.25,1.05372,0,100.0,0.0,1.0,0.0,0.0,1.0,1,100.0,15.75,4.1,1,1.0,0,1.0,0,1.0,0,1.0,0,1.0
1091,'U2',29.36,7.412,14.3,-9.8,1.00493,0,100.0,0.0,1.0,0.0,0.0,1.0,1,100.0,29.5,29.0,1,1.0,0,1.0,0,1.0,0,1.0,0,1.0
1092,'U2',24.979,12.499,14.1,-9.7,0.99526,0,100.0,0.0,1.0,0.0,0.0,1.0,1,100.0,29.2,22.3,1,1.0,0,1.0,0,1.0,0,1.0,0,1.0
1093,'U2',27.936,11.16,13.9,-9.6,0.99778,0,100.0,0.0,1.0,0.0,0.0,1.0,1,100.0,28.8,12.9,1,1.0,0,1.0,0,1.0,0,1.0,0,1.0
1094,'U2',0.0,0.0,9.4,-4.15,1.00665,0,100.0,0.0,1.0,0.0,0.0,1.0,0,100.0,12.5,3.0,1,1.0,0,1.0,0,1.0,0,1.0,0,1.0
1095,'U2',25.0,12.007,14.7,-8.3,1.02271,0,100.0,0.0,1.0,0.0,0.0,1.0,1,100.0,25.0,25.0,1,1.0,0,1.0,0,1.0,0,1.0,0,1.0
1096,'U2',23.657,12.3,12.3,-12.3,1.01192,0,100.0,0.0,1.0,0.0,0.0,1.0,1,100.0,25.5,23.5,1,1.0,0,1.0,0,1.0,0,1.0,0,1.0
1097,'U2',21.736,12.302,19.8,-10.7,1.02127,0,100.0,0.0,1.0,0.0,0.0,1.0,1,100.0,32.0,20.0,1,1.0,0,1.0,0,1.0,0,1.0,0,1.0
1098,'U2',23.571,10.334,11.8,-8.1,0.99435,0,100.0,0.0,1.0,0.0,0.0,1.0,1,100.0,24.3,22.3,1,1.0,0,1.0,0,1.0,0,1.0,0,1.0
1099,'10',21.78,12.908,14.1,-9.7,1.08573,0,100.0,0.0,1.0,0.0,0.0,1.0,1,100.0,29.2,18.0,1,1.0,0,1.0,0,1.0,0,1.0,0,1.0
1100,'U2',17.049,6.7,6.7,-6.7,1.00646,0,100.0,0.0,1.0,0.0,0.0,1.0,1,100.0,20.5,15.0,1,1.0,0,1.0,0,1.0,0,1.0,0,1.0
1101,'U2',49.7,11.571,37.5,-16.7,1.01091,0,100.0,0.0,1.0,0.0,0.0,1.0,1,100.0,50.0,48.8,1,1.0,0,1.0,0,1.0,0,1.0,0,1.0
1102,'U2',20.0,7.432,8.5,-8.5,0.97221,0,100.0,0.0,1.0,0.0,0.0,1.0,1,100.0,20.0,5.0,1,1.0,0,1.0,0,1.0,0,1.0,0,1.0
1103,'U2',28.69,2.51,15.85,-9.62,1.07884,0,100.0,0.0,1.0,0.0,0.0,1.0,1,100.0,28.83,28.69,1,1.0,0,1.0,0,1.0,0,1.0,0,1.0
1104,'U2',79.468,51.2,51.2,-27.5,1.0317,0,100.0,0.0,1.0,0.0,0.0,1.0,1,100.0,82.6,75.0,1,1.0,0,1.0,0,1.0,0,1.0,0,1.0
1105,'U2',75.0,45.1,45.1,-25.0,1.0314,0,100.0,0.0,1.0,0.0,0.0,1.0,1,100.0,75.0,75.0,1,1.0,0,1.0,0,1.0,0,1.0,0,1.0
1106,'U3',1125.656,326.571,470.3,-470.3,1.01262,0,100.0,0.0,1.0,0.0,0.0,1.0,1,100.0,1190.0,1104.9,1,1.0,0,1.0,0,1.0,0,1.0,0,1.0
1107,'U3',425.881,221.101,437.2,-235.2,1.01793,0,100.0,0.0,1.0,0.0,0.0,1.0,1,100.0,705.5,300.0,1,1.0,0,1.0,0,1.0,0,1.0,0,1.0
1108,'U3',64.0,27.102,95.97,-54.5,0.95838,0,100.0,0.0,1.0,0.0,0.0,1.0,1,100.0,163.5,64.0,1,1.0,0,1.0,0,1.0,0,1.0,0,1.0
1109,'11',0.0,0.0,250.2,-134.6,1.0647,0,100.0,0.0,1.0,0.0,0.0,1.0,0,100.0,403.7,200.0,1,1.0,0,1.0,0,1.0,0,1.0,0,1.0
1110,'U3',16.729,13.1,13.1,-7.1,1.08969,0,100.0,0.0,1.0,0.0,0.0,1.0,1,100.0,21.2,16.0,1,1.0,0,1.0,0,1.0,0,1.0,0,1.0
1111,'11',167.798,10.222,185.4,-99.7,1.08266,0,100.0,0.0,1.0,0.0,0.0,1.0,1,100.0,299.2,110.0,1,1.0,0,1.0,0,1.0,0,1.0,0,1.0
1112,'U3',102.307,3.625,189.6,-102.0,1.03073,0,100.0,0.0,1.0,0.0,0.0,1.0,1,100.0,306.0,95.0,1,1.0,0,1.0,0,1.0,0,1.0,0,1.0
1113,'U3',109.667,42.726,130.6,-70.3,1.09846,0,100.0,0.0,1.0,0.0,0.0,1.0,1,100.0,210.8,66.0,1,1.0,0,1.0,0,1.0,0,1.0,0,1.0
1114,'U3',107.949,137.478,157.5,-70.0,1.03189,0,100.0,0.0,1.0,0.0,0.0,1.0,1,100.0,210.0,64.0,1,1.0,0,1.0,0,1.0,0,1.0,0,1.0
1115,'U3',134.309,-12.329,125.9,-67.7,1.07322,0,100.0,0.0,1.0,0.0,0.0,1.0,1,100.0,203.1,122.58,1,1.0,0,1.0,0,1.0,0,1.0,0,1.0
1116,'11',0.0,0.0,28.8,-19.8,1.08808,0,100.0,0.0,1.0,0.0,0.0,1.0,0,100.0,59.5,10.0,1,1.0,0,1.0,0,1.0,0,1.0,0,1.0
1117,'U3',100.933,110.616,115.9,-62.3,1.01156,0,100.0,0.0,1.0,0.0,0.0,1.0,1,100.0,187.0,85.0,1,1.0,0,1.0,0,1.0,0,1.0,0,1.0
1118,'U3',126.095,6.772,114.7,-61.7,1.07514,0,100.0,0.0,1.0,0.0,0.0,1.0,1,100.0,185.0,98.05,1,1.0,0,1.0,0,1.0,0,1.0,0,1.0
1119,'U3',119.561,22.932,88.7,-61.0,0.99932,0,100.0,0.0,1.0,0.0,0.0,1.0,1,100.0,183.1,90.0,1,1.0,0,1.0,0,1.0,0,1.0,0,1.0
1120,'U3',118.383,22.976,86.7,-59.7,1.00025,0,100.0,0.0,1.0,0.0,0.0,1.0,1,100.0,179.0,90.0,1,1.0,0,1.0,0,1.0,0,1.0,0,1.0
1121,'U3',140.551,60.998,68.1,-46.9,1.06932,0,100.0,0.0,1.0,0.0,0.0,1.0,1,100.0,140.6,54.83,1,1.0,0,1.0,0,1.0,0,1.0,0,1.0
1122,'U3',73.111,-40.74,77.5,-41.7,0.95065,0,100.0,0.0,1.0,0.0,0.0,1.0,1,100.0,125.0,50.0,1,1.0,0,1.0,0,1.0,0,1.0,0,1.0
1123,'U3',119.777,60.575,105.4,-56.7,1.02058,0,100.0,0.0,1.0,0.0,0.0,1.0,1,100.0,170.0,111.0,1,1.0,0,1.0,0,1.0,0,1.0,0,1.0
1124,'U3',9.768,15.397,16.2,-8.7,1.03105,0,100.0,0.0,1.0,0.0,0.0,1.0,1,100.0,26.13,3.0,1,1.0,0,1.0,0,1.0,0,1.0,0,1.0
1125,'U3',171.955,9.849,114.3,-78.7,1.07452,0,100.0,0.0,1.0,0.0,0.0,1.0,1,100.0,236.0,140.0,1,1.0,0,1.0,0,1.0,0,1.0,0,1.0
1126,'U3',42.034,16.264,16.5,-16.5,1.02025,0,100.0,0.0,1.0,0.0,0.0,1.0,1,100.0,50.2,40.8,1,1.0,0,1.0,0,1.0,0,1.0,0,1.0
1127,'U3',42.466,19.007,20.7,-14.2,1.0068,0,100.0,0.0,1.0,0.0,0.0,1.0,1,100.0,42.7,41.6,1,1.0,0,1.0,0,1.0,0,1.0,0,1.0
1128,'U3',4.67,9.53,9.53,-4.53,1.00403,0,100.0,0.0,1.0,0.0,0.0,1.0,1,100.0,13.63,4.67,1,1.0,0,1.0,0,1.0,0,1.0,0,1.0
1129,'U3',6.157,-0.288,4.12,-2.15,0.99103,0,100.0,0.0,1.0,0.0,0.0,1.0,1,100.0,6.43,6.15,1,1.0,0,1.0,0,1.0,0,1.0,0,1.0
1130,'11',42.314,7.809,21.1,-14.5,1.09777,0,100.0,0.0,1.0,0.0,0.0,1.0,1,100.0,43.6,27.9,1,1.0,0,1.0,0,1.0,0,1.0,0,1.0
1131,'U3',27.536,11.1,11.1,-11.1,1.02112,0,100.0,0.0,1.0,0.0,0.0,1.0,1,100.0,33.7,24.0,1,1.0,0,1.0,0,1.0,0,1.0,0,1.0
1132,'U3',29.36,7.412,14.3,-9.8,1.00493,0,100.0,0.0,1.0,0.0,0.0,1.0,1,100.0,29.5,29.0,1,1.0,0,1.0,0,1.0,0,1.0,0,1.0
1133,'U3',24.979,12.499,14.1,-9.7,0.99526,0,100.0,0.0,1.0,0.0,0.0,1.0,1,100.0,29.2,22.3,1,1.0,0,1.0,0,1.0,0,1.0,0,1.0
1134,'U3',27.936,11.16,13.9,-9.6,0.99778,0,100.0,0.0,1.0,0.0,0.0,1.0,1,100.0,28.8,9.7,1,1.0,0,1.0,0,1.0,0,1.0,0,1.0
1135,'U3',25.0,12.007,14.7,-8.3,1.02271,0,100.0,0.0,1.0,0.0,0.0,1.0,1,100.0,25.0,25.0,1,1.0,0,1.0,0,1.0,0,1.0,0,1.0
1136,'U3',25.404,12.864,34.4,-18.5,1.01189,0,100.0,0.0,1.0,0.0,0.0,1.0,1,100.0,55.5,20.0,1,1.0,0,1.0,0,1.0,0,1.0,0,1.0
1137,'U3',23.571,10.334,11.8,-8.1,0.99435,0,100.0,0.0,1.0,0.0,0.0,1.0,1,100.0,24.3,22.3,1,1.0,0,1.0,0,1.0,0,1.0,0,1.0
1138,'11',21.78,12.908,14.1,-9.7,1.08573,0,100.0,0.0,1.0,0.0,0.0,1.0,1,100.0,29.2,18.0,1,1.0,0,1.0,0,1.0,0,1.0,0,1.0
1139,'U3',17.049,6.7,6.7,-6.7,1.00646,0,100.0,0.0,1.0,0.0,0.0,1.0,1,100.0,20.5,15.0,1,1.0,0,1.0,0,1.0,0,1.0,0,1.0
1140,'U3',49.7,11.571,37.5,-16.7,1.01091,0,100.0,0.0,1.0,0.0,0.0,1.0,1,100.0,50.0,48.8,1,1.0,0,1.0,0,1.0,0,1.0,0,1.0
1141,'U3',20.0,7.432,8.5,-8.5,0.97221,0,100.0,0.0,1.0,0.0,0.0,1.0,1,100.0,20.0,5.0,1,1.0,0,1.0,0,1.0,0,1.0,0,1.0
1142,'U3',28.69,2.51,15.85,-9.62,1.07884,0,100.0,0.0,1.0,0.0,0.0,1.0,1,100.0,28.83,28.69,1,1.0,0,1.0,0,1.0,0,1.0,0,1.0
1143,'U3',75.0,45.1,45.1,-25.0,1.0314,0,100.0,0.0,1.0,0.0,0.0,1.0,1,100.0,75.0,75.0,1,1.0,0,1.0,0,1.0,0,1.0,0,1.0
1144,'U4',425.881,221.101,437.2,-235.2,1.01793,0,100.0,0.0,1.0,0.0,0.0,1.0,1,100.0,705.5,300.0,1,1.0,0,1.0,0,1.0,0,1.0,0,1.0
1145,'U4',64.0,27.102,95.97,-54.5,0.95838,0,100.0,0.0,1.0,0.0,0.0,1.0,1,100.0,163.5,64.0,1,1.0,0,1.0,0,1.0,0,1.0,0,1.0
1146,'U2',55.0,25.208,94.9,-51.0,1.08273,0,100.0,0.0,1.0,0.0,0.0,1.0,1,100.0,153.1,55.0,1,1.0,0,1.0,0,1.0,0,1.0,0,1.0
1147,'U4',130.227,53.404,168.6,-90.7,1.07435,0,100.0,0.0,1.0,0.0,0.0,1.0,1,100.0,272.0,70.0,1,1.0,0,1.0,0,1.0,0,1.0,0,1.0
1148,'U2',72.083,17.704,49.6,-26.7,1.0985,0,100.0,0.0,1.0,0.0,0.0,1.0,1,100.0,80.0,66.0,1,1.0,0,1.0,0,1.0,0,1.0,0,1.0
1149,'U4',109.667,42.726,130.6,-70.3,1.09846,0,100.0,0.0,1.0,0.0,0.0,1.0,1,100.0,210.8,66.0,1,1.0,0,1.0,0,1.0,0,1.0,0,1.0
1150,'U4',107.949,137.478,157.5,-70.0,1.03189,0,100.0,0.0,1.0,0.0,0.0,1.0,1,100.0,210.0,64.0,1,1.0,0,1.0,0,1.0,0,1.0,0,1.0
1151,'U4',132.192,-12.317,125.9,-67.7,1.07328,0,100.0,0.0,1.0,0.0,0.0,1.0,1,100.0,203.1,120.05,1,1.0,0,1.0,0,1.0,0,1.0,0,1.0
1152,'12',0.0,0.0,28.8,-19.8,1.08808,0,100.0,0.0,1.0,0.0,0.0,1.0,0,100.0,59.5,10.0,1,1.0,0,1.0,0,1.0,0,1.0,0,1.0
1153,'U4',100.933,110.616,115.9,-62.3,1.01156,0,100.0,0.0,1.0,0.0,0.0,1.0,1,100.0,187.0,85.0,1,1.0,0,1.0,0,1.0,0,1.0,0,1.0
1154,'U4',126.095,6.772,114.7,-61.7,1.07514,0,100.0,0.0,1.0,0.0,0.0,1.0,1,100.0,185.0,98.05,1,1.0,0,1.0,0,1.0,0,1.0,0,1.0
1155,'U4',138.932,19.739,188.9,-130.0,0.99029,0,100.0,0.0,1.0,0.0,0.0,1.0,1,100.0,390.1,35.0,1,1.0,0,1.0,0,1.0,0,1.0,0,1.0
1156,'U4',156.723,20.332,188.9,-130.0,0.99047,0,100.0,0.0,1.0,0.0,0.0,1.0,1,100.0,390.1,60.0,1,1.0,0,1.0,0,1.0,0,1.0,0,1.0
1157,'U4',140.574,60.744,68.1,-46.9,1.06914,0,100.0,0.0,1.0,0.0,0.0,1.0,1,100.0,140.6,54.83,1,1.0,0,1.0,0,1.0,0,1.0,0,1.0
1158,'U4',73.111,-40.74,77.5,-41.7,0.95065,0,100.0,0.0,1.0,0.0,0.0,1.0,1,100.0,125.0,50.0,1,1.0,0,1.0,0,1.0,0,1.0,0,1.0
1159,'U4',119.777,60.575,105.4,-56.7,1.02058,0,100.0,0.0,1.0,0.0,0.0,1.0,1,100.0,170.0,111.0,1,1.0,0,1.0,0,1.0,0,1.0,0,1.0
1160,'U4',43.623,16.294,19.7,-19.7,1.02024,0,100.0,0.0,1.0,0.0,0.0,1.0,1,100.0,60.0,40.8,1,1.0,0,1.0,0,1.0,0,1.0,0,1.0
1161,'U4',6.157,-0.288,4.12,-2.15,0.99103,0,100.0,0.0,1.0,0.0,0.0,1.0,1,100.0,6.43,6.15,1,1.0,0,1.0,0,1.0,0,1.0,0,1.0
1162,'U2',34.92,7.797,17.4,-12.0,1.09863,0,100.0,0.0,1.0,0.0,0.0,1.0,1,100.0,36.0,27.2,1,1.0,0,1.0,0,1.0,0,1.0,0,1.0
1163,'U4',29.36,7.412,14.3,-9.8,1.00493,0,100.0,0.0,1.0,0.0,0.0,1.0,1,100.0,29.5,29.0,1,1.0,0,1.0,0,1.0,0,1.0,0,1.0
1164,'U4',27.936,11.16,13.9,-9.6,0.99778,0,100.0,0.0,1.0,0.0,0.0,1.0,1,100.0,28.8,9.7,1,1.0,0,1.0,0,1.0,0,1.0,0,1.0
1165,'U4',25.0,12.007,14.7,-8.3,1.02271,0,100.0,0.0,1.0,0.0,0.0,1.0,1,100.0,25.0,25.0,1,1.0,0,1.0,0,1.0,0,1.0,0,1.0
1166,'12',21.78,12.908,14.1,-9.7,1.08573,0,100.0,0.0,1.0,0.0,0.0,1.0,1,100.0,29.2,18.0,1,1.0,0,1.0,0,1.0,0,1.0,0,1.0
1167,'U4',17.049,6.7,6.7,-6.7,1.00646,0,100.0,0.0,1.0,0.0,0.0,1.0,1,100.0,20.5,15.0,1,1.0,0,1.0,0,1.0,0,1.0,0,1.0
1168,'U4',19.874,11.23,15.0,-6.7,1.02971,0,100.0,0.0,1.0,0.0,0.0,1.0,1,100.0,20.0,19.5,1,1.0,0,1.0,0,1.0,0,1.0,0,1.0
1169,'U4',22.0,8.357,9.4,-9.4,0.97531,0,100.0,0.0,1.0,0.0,0.0,1.0,1,100.0,22.0,5.0,1,1.0,0,1.0,0,1.0,0,1.0,0,1.0
...
0 / END OF GENERATOR DATA BEGIN BRANCH DATA
1,5174,'FX',0.0248,0.4776,0.0,25.0,25.0,75.0,0.0,0.0,0.0,0.0,1,1,0.0,1,1.0,0,1.0,0,1.0,0,1.0
3,5176,'FX',0.0248,0.4776,0.0,25.0,25.0,75.0,0.0,0.0,0.0,0.0,1,1,0.0,1,1.0,0,1.0,0,1.0,0,1.0
7,5181,'FX',0.0248,0.4776,0.0,25.0,25.0,75.0,0.0,0.0,0.0,0.0,1,1,0.0,1,1.0,0,1.0,0,1.0,0,1.0
8,5183,'FX',0.0248,0.4776,0.0,25.0,25.0,75.0,0.0,0.0,0.0,0.0,1,1,0.0,1,1.0,0,1.0,0,1.0,0,1.0
11,5191,'FX',0.0248,0.4776,0.0,25.0,25.0,75.0,0.0,0.0,0.0,0.0,1,1,0.0,1,1.0,0,1.0,0,1.0,0,1.0
12,5192,'FX',0.0248,0.4776,0.0,25.0,25.0,75.0,0.0,0.0,0.0,0.0,1,1,0.0,1,1.0,0,1.0,0,1.0,0,1.0
13,5194,'FX',0.0248,0.4776,0.0,25.0,25.0,75.0,0.0,0.0,0.0,0.0,1,1,0.0,1,1.0,0,1.0,0,1.0,0,1.0
14,5201,'FX',0.0248,0.4776,0.0,25.0,25.0,75.0,0.0,0.0,0.0,0.0,1,1,0.0,1,1.0,0,1.0,0,1.0,0,1.0
15,5204,'FX',0.0248,0.4776,0.0,25.0,25.0,75.0,0.0,0.0,0.0,0.0,1,1,0.0,1,1.0,0,1.0,0,1.0,0,1.0
16,5206,'FX',0.0248,0.4776,0.0,25.0,25.0,75.0,0.0,0.0,0.0,0.0,1,1,0.0,1,1.0,0,1.0,0,1.0,0,1.0
20,5214,'FX',0.0248,0.4776,0.0,25.0,25.0,75.0,0.0,0.0,0.0,0.0,1,1,0.0,1,1.0,0,1.0,0,1.0,0,1.0
21,5216,'FX',0.0248,0.4776,0.0,25.0,25.0,75.0,0.0,0.0,0.0,0.0,1,1,0.0,1,1.0,0,1.0,0,1.0,0,1.0
25,5223,'FX',0.0248,0.4776,0.0,25.0,25.0,75.0,0.0,0.0,0.0,0.0,1,1,0.0,1,1.0,0,1.0,0,1.0,0,1.0
27,5225,'FX',0.0248,0.4776,0.0,25.0,25.0,75.0,0.0,0.0,0.0,0.0,1,1,0.0,1,1.0,0,1.0,0,1.0,0,1.0
28,5226,'FX',0.0248,0.4776,0.0,25.0,25.0,75.0,0.0,0.0,0.0,0.0,1,1,0.0,1,1.0,0,1.0,0,1.0,0,1.0
30,5231,'FX',0.0248,0.4776,0.0,25.0,25.0,75.0,0.0,0.0,0.0,0.0,1,1,0.0,1,1.0,0,1.0,0,1.0,0,1.0
31,5232,'FX',0.0248,0.4776,0.0,25.0,25.0,75.0,0.0,0.0,0.0,0.0,1,1,0.0,1,1.0,0,1.0,0,1.0,0,1.0
33,5234,'FX',0.0248,0.4776,0.0,25.0,25.0,75.0,0.0,0.0,0.0,0.0,1,1,0.0,1,1.0,0,1.0,0,1.0,0,1.0
34,5235,'FX',0.0248,0.4776,0.0,25.0,25.0,75.0,0.0,0.0,0.0,0.0,1,1,0.0,1,1.0,0,1.0,0,1.0,0,1.0
35,5236,'FX',0.0248,0.4776,0.0,25.0,25.0,75.0,0.0,0.0,0.0,0.0,1,1,0.0,1,1.0,0,1.0,0,1.0,0,1.0
36,5237,'FX',0.0248,0.4776,0.0,25.0,25.0,75.0,0.0,0.0,0.0,0.0,1,1,0.0,1,1.0,0,1.0,0,1.0,0,1.0
37,5238,'FX',0.0248,0.4776,0.0,25.0,25.0,75.0,0.0,0.0,0.0,0.0,1,1,0.0,1,1.0,0,1.0,0,1.0,0,1.0
39,5240,'FX',0.0248,0.4776,0.0,25.0,25.0,75.0,0.0,0.0,0.0,0.0,1,1,0.0,1,1.0,0,1.0,0,1.0,0,1.0
40,5242,'FX',0.0248,0.4776,0.0,25.0,25.0,75.0,0.0,0.0,0.0,0.0,1,1,0.0,1,1.0,0,1.0,0,1.0,0,1.0
45,5249,'FX',0.0248,0.4776,0.0,25.0,25.0,75.0,0.0,0.0,0.0,0.0,1,1,0.0,1,1.0,0,1.0,0,1.0,0,1.0
46,5250,'FX',0.0248,0.4776,0.0,25.0,25.0,75.0,0.0,0.0,0.0,0.0,1,1,0.0,1,1.0,0,1.0,0,1.0,0,1.0
48,5252,'FX',0.0248,0.4776,0.0,25.0,25.0,75.0,0.0,0.0,0.0,0.0,1,1,0.0,1,1.0,0,1.0,0,1.0,0,1.0
51,5255,'FX',0.0248,0.4776,0.0,25.0,25.0,75.0,0.0,0.0,0.0,0.0,1,1,0.0,1,1.0,0,1.0,0,1.0,0,1.0
52,5256,'FX',0.0248,0.4776,0.0,25.0,25.0,75.0,0.0,0.0,0.0,0.0,1,1,0.0,1,1.0,0,1.0,0,1.0,0,1.0
54,5262,'FX',0.0248,0.4776,0.0,25.0,25.0,75.0,0.0,0.0,0.0,0.0,1,1,0.0,1,1.0,0,1.0,0,1.0,0,1.0
60,5268,'FX',0.0248,0.4776,0.0,25.0,25.0,75.0,0.0,0.0,0.0,0.0,1,1,0.0,1,1.0,0,1.0,0,1.0,0,1.0
63,5271,'FX',0.0248,0.4776,0.0,25.0,25.0,75.0,0.0,0.0,0.0,0.0,1,1,0.0,1,1.0,0,1.0,0,1.0,0,1.0
65,5273,'FX',0.0248,0.4776,0.0,25.0,25.0,75.0,0.0,0.0,0.0,0.0,1,1,0.0,1,1.0,0,1.0,0,1.0,0,1.0
66,5274,'FX',0.0248,0.4776,0.0,25.0,25.0,75.0,0.0,0.0,0.0,0.0,1,1,0.0,1,1.0,0,1.0,0,1.0,0,1.0
67,5275,'FX',0.0248,0.4776,0.0,25.0,25.0,75.0,0.0,0.0,0.0,0.0,1,1,0.0,1,1.0,0,1.0,0,1.0,0,1.0
68,5276,'FX',0.0248,0.4776,0.0,25.0,25.0,75.0,0.0,0.0,0.0,0.0,1,1,0.0,1,1.0,0,1.0,0,1.0,0,1.0
69,5280,'FX',0.0248,0.4776,0.0,25.0,25.0,75.0,0.0,0.0,0.0,0.0,1,1,0.0,1,1.0,0,1.0,0,1.0,0,1.0
70,5281,'FX',0.0248,0.4776,0.0,25.0,25.0,75.0,0.0,0.0,0.0,0.0,1,1,0.0,1,1.0,0,1.0,0,1.0,0,1.0
71,5283,'FX',0.0248,0.4776,0.0,25.0,25.0,75.0,0.0,0.0,0.0,0.0,1,1,0.0,1,1.0,0,1.0,0,1.0,0,1.0
72,5285,'FX',0.0248,0.4776,0.0,25.0,25.0,75.0,0.0,0.0,0.0,0.0,1,1,0.0,1,1.0,0,1.0,0,1.0,0,1.0
74,5287,'FX',0.0248,0.4776,0.0,25.0,25.0,75.0,0.0,0.0,0.0,0.0,1,1,0.0,1,1.0,0,1.0,0,1.0,0,1.0
75,5288,'FX',0.0248,0.4776,0.0,25.0,25.0,75.0,0.0,0.0,0.0,0.0,1,1,0.0,1,1.0,0,1.0,0,1.0,0,1.0
76,5289,'FX',0.0248,0.4776,0.0,25.0,25.0,75.0,0.0,0.0,0.0,0.0,1,1,0.0,1,1.0,0,1.0,0,1.0,0,1.0
77,5294,'FX',0.0248,0.4776,0.0,25.0,25.0,75.0,0.0,0.0,0.0,0.0,1,1,0.0,1,1.0,0,1.0,0,1.0,0,1.0
78,5295,'FX',0.0248,0.4776,0.0,25.0,25.0,75.0,0.0,0.0,0.0,0.0,1,1,0.0,1,1.0,0,1.0,0,1.0,0,1.0
79,5296,'FX',0.0248,0.4776,0.0,25.0,25.0,75.0,0.0,0.0,0.0,0.0,1,1,0.0,1,1.0,0,1.0,0,1.0,0,1.0
82,5303,'FX',0.0248,0.4776,0.0,25.0,25.0,75.0,0.0,0.0,0.0,0.0,1,1,0.0,1,1.0,0,1.0,0,1.0,0,1.0
83,5304,'FX',0.0248,0.4776,0.0,25.0,25.0,75.0,0.0,0.0,0.0,0.0,1,1,0.0,1,1.0,0,1.0,0,1.0,0,1.0
85,5306,'FX',0.0248,0.4776,0.0,25.0,25.0,75.0,0.0,0.0,0.0,0.0,1,1,0.0,1,1.0,0,1.0,0,1.0,0,1.0
86,5309,'FX',0.0248,0.4776,0.0,25.0,25.0,75.0,0.0,0.0,0.0,0.0,1,1,0.0,1,1.0,0,1.0,0,1.0,0,1.0
87,5310,'FX',0.0248,0.4776,0.0,25.0,25.0,75.0,0.0,0.0,0.0,0.0,1,1,0.0,1,1.0,0,1.0,0,1.0,0,1.0
89,5314,'FX',0.0248,0.4776,0.0,25.0,25.0,75.0,0.0,0.0,0.0,0.0,1,1,0.0,1,1.0,0,1.0,0,1.0,0,1.0
92,5321,'FX',0.0248,0.4776,0.0,25.0,25.0,75.0,0.0,0.0,0.0,0.0,1,1,0.0,1,1.0,0,1.0,0,1.0,0,1.0
95,5324,'FX',0.0248,0.4776,0.0,25.0,25.0,75.0,0.0,0.0,0.0,0.0,1,1,0.0,1,1.0,0,1.0,0,1.0,0,1.0
96,5325,'FX',0.0248,0.4776,0.0,25.0,25.0,75.0,0.0,0.0,0.0,0.0,1,1,0.0,1,1.0,0,1.0,0,1.0,0,1.0
98,5328,'FX',0.0248,0.4776,0.0,25.0,25.0,75.0,0.0,0.0,0.0,0.0,1,1,0.0,1,1.0,0,1.0,0,1.0,0,1.0
99,5329,'FX',0.0248,0.4776,0.0,25.0,25.0,75.0,0.0,0.0,0.0,0.0,1,1,0.0,1,1.0,0,1.0,0,1.0,0,1.0
101,5331,'FX',0.0248,0.4776,0.0,25.0,25.0,75.0,0.0,0.0,0.0,0.0,1,1,0.0,1,1.0,0,1.0,0,1.0,0,1.0
102,5334,'FX',0.0248,0.4776,0.0,25.0,25.0,75.0,0.0,0.0,0.0,0.0,1,1,0.0,1,1.0,0,1.0,0,1.0,0,1.0
104,5342,'FX',0.0248,0.4776,0.0,25.0,25.0,75.0,0.0,0.0,0.0,0.0,1,1,0.0,1,1.0,0,1.0,0,1.0,0,1.0
106,5346,'FX',0.0248,0.4776,0.0,25.0,25.0,75.0,0.0,0.0,0.0,0.0,1,1,0.0,1,1.0,0,1.0,0,1.0,0,1.0
107,5347,'FX',0.0248,0.4776,0.0,25.0,25.0,75.0,0.0,0.0,0.0,0.0,1,1,0.0,1,1.0,0,1.0,0,1.0,0,1.0
108,5348,'FX',0.0248,0.4776,0.0,25.0,25.0,75.0,0.0,0.0,0.0,0.0,1,1,0.0,1,1.0,0,1.0,0,1.0,0,1.0
110,5351,'FX',0.0248,0.4776,0.0,25.0,25.0,75.0,0.0,0.0,0.0,0.0,1,1,0.0,1,1.0,0,1.0,0,1.0,0,1.0
112,5353,'FX',0.0248,0.4776,0.0,25.0,25.0,75.0,0.0,0.0,0.0,0.0,1,1,0.0,1,1.0,0,1.0,0,1.0,0,1.0
113,5354,'FX',0.0248,0.4776,0.0,25.0,25.0,75.0,0.0,0.0,0.0,0.0,1,1,0.0,1,1.0,0,1.0,0,1.0,0,1.0
114,5355,'FX',0.0248,0.4776,0.0,25.0,25.0,75.0,0.0,0.0,0.0,0.0,1,1,0.0,1,1.0,0,1.0,0,1.0,0,1.0
115,5356,'FX',0.0248,0.4776,0.0,25.0,25.0,75.0,0.0,0.0,0.0,0.0,1,1,0.0,1,1.0,0,1.0,0,1.0,0,1.0
116,5357,'FX',0.0248,0.4776,0.0,25.0,25.0,75.0,0.0,0.0,0.0,0.0,1,1,0.0,1,1.0,0,1.0,0,1.0,0,1.0
117,5358,'FX',0.0248,0.4776,0.0,25.0,25.0,75.0,0.0,0.0,0.0,0.0,1,1,0.0,1,1.0,0,1.0,0,1.0,0,1.0
118,5359,'FX',0.0248,0.4776,0.0,25.0,25.0,75.0,0.0,0.0,0.0,0.0,1,1,0.0,1,1.0,0,1.0,0,1.0,0,1.0
119,5360,'FX',0.0248,0.4776,0.0,25.0,25.0,75.0,0.0,0.0,0.0,0.0,1,1,0.0,1,1.0,0,1.0,0,1.0,0,1.0
121,5364,'FX',0.0248,0.4776,0.0,25.0,25.0,75.0,0.0,0.0,0.0,0.0,1,1,0.0,1,1.0,0,1.0,0,1.0,0,1.0
122,5366,'FX',0.0248,0.4776,0.0,25.0,25.0,75.0,0.0,0.0,0.0,0.0,1,1,0.0,1,1.0,0,1.0,0,1.0,0,1.0
123,5367,'FX',0.0248,0.4776,0.0,25.0,25.0,75.0,0.0,0.0,0.0,0.0,1,1,0.0,1,1.0,0,1.0,0,1.0,0,1.0
124,5368,'FX',0.0248,0.4776,0.0,25.0,25.0,75.0,0.0,0.0,0.0,0.0,1,1,0.0,1,1.0,0,1.0,0,1.0,0,1.0
125,5369,'FX',0.0248,0.4776,0.0,25.0,25.0,75.0,0.0,0.0,0.0,0.0,1,1,0.0,1,1.0,0,1.0,0,1.0,0,1.0
128,5374,'FX',0.0248,0.4776,0.0,25.0,25.0,75.0,0.0,0.0,0.0,0.0,1,1,0.0,1,1.0,0,1.0,0,1.0,0,1.0
129,5379,'FX',0.0248,0.4776,0.0,25.0,25.0,75.0,0.0,0.0,0.0,0.0,1,1,0.0,1,1.0,0,1.0,0,1.0,0,1.0
130,5380,'FX',0.0248,0.4776,0.0,25.0,25.0,75.0,0.0,0.0,0.0,0.0,1,1,0.0,1,1.0,0,1.0,0,1.0,0,1.0
132,5385,'FX',0.0248,0.4776,0.0,25.0,25.0,75.0,0.0,0.0,0.0,0.0,1,1,0.0,1,1.0,0,1.0,0,1.0,0,1.0
139,5395,'FX',0.0248,0.4776,0.0,25.0,25.0,75.0,0.0,0.0,0.0,0.0,1,1,0.0,1,1.0,0,1.0,0,1.0,0,1.0
140,5396,'FX',0.0248,0.4776,0.0,25.0,25.0,75.0,0.0,0.0,0.0,0.0,1,1,0.0,1,1.0,0,1.0,0,1.0,0,1.0
143,5401,'FX',0.0248,0.4776,0.0,25.0,25.0,75.0,0.0,0.0,0.0,0.0,1,1,0.0,1,1.0,0,1.0,0,1.0,0,1.0
144,5403,'FX',0.0248,0.4776,0.0,25.0,25.0,75.0,0.0,0.0,0.0,0.0,1,1,0.0,1,1.0,0,1.0,0,1.0,0,1.0
145,5404,'FX',0.0248,0.4776,0.0,25.0,25.0,75.0,0.0,0.0,0.0,0.0,1,1,0.0,1,1.0,0,1.0,0,1.0,0,1.0
147,5406,'FX',0.0248,0.4776,0.0,25.0,25.0,75.0,0.0,0.0,0.0,0.0,1,1,0.0,1,1.0,0,1.0,0,1.0,0,1.0
148,5408,'FX',0.0248,0.4776,0.0,25.0,25.0,75.0,0.0,0.0,0.0,0.0,1,1,0.0,1,1.0,0,1.0,0,1.0,0,1.0
149,5409,'FX',0.0248,0.4776,0.0,25.0,25.0,75.0,0.0,0.0,0.0,0.0,1,1,0.0,1,1.0,0,1.0,0,1.0,0,1.0
151,5416,'FX',0.0248,0.4776,0.0,25.0,25.0,75.0,0.0,0.0,0.0,0.0,1,1,0.0,1,1.0,0,1.0,0,1.0,0,1.0
152,5417,'FX',0.0248,0.4776,0.0,25.0,25.0,75.0,0.0,0.0,0.0,0.0,1,1,0.0,1,1.0,0,1.0,0,1.0,0,1.0
153,5418,'FX',0.0248,0.4776,0.0,25.0,25.0,75.0,0.0,0.0,0.0,0.0,1,1,0.0,1,1.0,0,1.0,0,1.0,0,1.0
154,5419,'FX',0.0248,0.4776,0.0,25.0,25.0,75.0,0.0,0.0,0.0,0.0,1,1,0.0,1,1.0,0,1.0,0,1.0,0,1.0
155,5421,'FX',0.0248,0.4776,0.0,25.0,25.0,75.0,0.0,0.0,0.0,0.0,1,1,0.0,1,1.0,0,1.0,0,1.0,0,1.0
157,5426,'FX',0.0248,0.4776,0.0,25.0,25.0,75.0,0.0,0.0,0.0,0.0,1,1,0.0,1,1.0,0,1.0,0,1.0,0,1.0
158,5427,'FX',0.0248,0.4776,0.0,25.0,25.0,75.0,0.0,0.0,0.0,0.0,1,1,0.0,1,1.0,0,1.0,0,1.0,0,1.0
159,5428,'FX',0.0248,0.4776,0.0,25.0,25.0,75.0,0.0,0.0,0.0,0.0,1,1,0.0,1,1.0,0,1.0,0,1.0,0,1.0
160,5431,'FX',0.0248,0.4776,0.0,25.0,25.0,75.0,0.0,0.0,0.0,0.0,1,1,0.0,1,1.0,0,1.0,0,1.0,0,1.0
162,5435,'FX',0.0248,0.4776,0.0,25.0,25.0,75.0,0.0,0.0,0.0,0.0,1,1,0.0,1,1.0,0,1.0,0,1.0,0,1.0
163,5438,'FX',0.0248,0.4776,0.0,25.0,25.0,75.0,0.0,0.0,0.0,0.0,1,1,0.0,1,1.0,0,1.0,0,1.0,0,1.0
164,5440,'FX',0.0248,0.4776,0.0,25.0,25.0,75.0,0.0,0.0,0.0,0.0,1,1,0.0,1,1.0,0,1.0,0,1.0,0,1.0
165,5441,'FX',0.0248,0.4776,0.0,25.0,25.0,75.0,0.0,0.0,0.0,0.0,1,1,0.0,1,1.0,0,1.0,0,1.0,0,1.0
166,5442,'FX',0.0248,0.4776,0.0,25.0,25.0,75.0,0.0,0.0,0.0,0.0,1,1,0.0,1,1.0,0,1.0,0,1.0,0,1.0
171,5456,'FX',0.0248,0.4776,0.0,25.0,25.0,75.0,0.0,0.0,0.0,0.0,1,1,0.0,1,1.0,0,1.0,0,1.0,0,1.0
172,5459,'FX',0.0248,0.4776,0.0,25.0,25.0,75.0,0.0,0.0,0.0,0.0,1,1,0.0,1,1.0,0,1.0,0,1.0,0,1.0
174,5461,'FX',0.0248,0.4776,0.0,25.0,25.0,75.0,0.0,0.0,0.0,0.0,1,1,0.0,1,1.0,0,1.0,0,1.0,0,1.0
175,5462,'FX',0.0248,0.4776,0.0,25.0,25.0,75.0,0.0,0.0,0.0,0.0,1,1,0.0,1,1.0,0,1.0,0,1.0,0,1.0
177,5465,'FX',0.0248,0.4776,0.0,25.0,25.0,75.0,0.0,0.0,0.0,0.0,1,1,0.0,1,1.0,0,1.0,0,1.0,0,1.0
178,5466,'FX',0.0248,0.4776,0.0,25.0,25.0,75.0,0.0,0.0,0.0,0.0,1,1,0.0,1,1.0,0,1.0,0,1.0,0,1.0
179,5467,'FX',0.0248,0.4776,0.0,25.0,25.0,75.0,0.0,0.0,0.0,0.0,1,1,0.0,1,1.0,0,1.0,0,1.0,0,1.0
180,5468,'FX',0.0248,0.4776,0.0,25.0,25.0,75.0,0.0,0.0,0.0,0.0,1,1,0.0,1,1.0,0,1.0,0,1.0,0,1.0
182,5471,'FX',0.0248,0.4776,0.0,25.0,25.0,75.0,0.0,0.0,0.0,0.0,1,1,0.0,1,1.0,0,1.0,0,1.0,0,1.0
183,5474,'FX',0.0248,0.4776,0.0,25.0,25.0,75.0,0.0,0.0,0.0,0.0,1,1,0.0,1,1.0,0,1.0,0,1.0,0,1.0
184,5478,'FX',0.0248,0.4776,0.0,25.0,25.0,75.0,0.0,0.0,0.0,0.0,1,1,0.0,1,1.0,0,1.0,0,1.0,0,1.0
185,5479,'FX',0.0248,0.4776,0.0,25.0,25.0,75.0,0.0,0.0,0.0,0.0,1,1,0.0,1,1.0,0,1.0,0,1.0,0,1.0
186,5480,'FX',0.0248,0.4776,0.0,25.0,25.0,75.0,0.0,0.0,0.0,0.0,1,1,0.0,1,1.0,0,1.0,0,1.0,0,1.0
187,5481,'FX',0.0248,0.4776,0.0,25.0,25.0,75.0,0.0,0.0,0.0,0.0,1,1,0.0,1,1.0,0,1.0,0,1.0,0,1.0
189,5483,'FX',0.0248,0.4776,0.0,25.0,25.0,75.0,0.0,0.0,0.0,0.0,1,1,0.0,1,1.0,0,1.0,0,1.0,0,1.0
192,5487,'FX',0.0248,0.4776,0.0,25.0,25.0,75.0,0.0,0.0,0.0,0.0,1,1,0.0,1,1.0,0,1.0,0,1.0,0,1.0
202,5500,'FX',0.0248,0.4776,0.0,25.0,25.0,75.0,0.0,0.0,0.0,0.0,1,1,0.0,1,1.0,0,1.0,0,1.0,0,1.0
204,5503,'FX',0.0248,0.4776,0.0,25.0,25.0,75.0,0.0,0.0,0.0,0.0,1,1,0.0,1,1.0,0,1.0,0,1.0,0,1.0
205,5504,'FX',0.0248,0.4776,0.0,25.0,25.0,75.0,0.0,0.0,0.0,0.0,1,1,0.0,1,1.0,0,1.0,0,1.0,0,1.0
207,5506,'FX',0.0248,0.4776,0.0,25.0,25.0,75.0,0.0,0.0,0.0,0.0,1,1,0.0,1,1.0,0,1.0,0,1.0,0,1.0
208,5507,'FX',0.0248,0.4776,0.0,25.0,25.0,75.0,0.0,0.0,0.0,0.0,1,1,0.0,1,1.0,0,1.0,0,1.0,0,1.0
209,5508,'FX',0.0248,0.4776,0.0,25.0,25.0,75.0,0.0,0.0,0.0,0.0,1,1,0.0,1,1.0,0,1.0,0,1.0,0,1.0
210,5509,'FX',0.0248,0.4776,0.0,25.0,25.0,75.0,0.0,0.0,0.0,0.0,1,1,0.0,1,1.0,0,1.0,0,1.0,0,1.0
211,5510,'FX',0.0248,0.4776,0.0,25.0,25.0,75.0,0.0,0.0,0.0,0.0,1,1,0.0,1,1.0,0,1.0,0,1.0,0,1.0
212,5511,'FX',0.0248,0.4776,0.0,25.0,25.0,75.0,0.0,0.0,0.0,0.0,1,1,0.0,1,1.0,0,1.0,0,1.0,0,1.0
214,5514,'FX',0.0248,0.4776,0.0,25.0,25.0,75.0,0.0,0.0,0.0,0.0,1,1,0.0,1,1.0,0,1.0,0,1.0,0,1.0
216,5521,'FX',0.0248,0.4776,0.0,25.0,25.0,75.0,0.0,0.0,0.0,0.0,1,1,0.0,1,1.0,0,1.0,0,1.0,0,1.0
221,5530,'FX',0.0248,0.4776,0.0,25.0,25.0,75.0,0.0,0.0,0.0,0.0,1,1,0.0,1,1.0,0,1.0,0,1.0,0,1.0
222,5531,'FX',0.0248,0.4776,0.0,25.0,25.0,75.0,0.0,0.0,0.0,0.0,1,1,0.0,1,1.0,0,1.0,0,1.0,0,1.0
223,5532,'FX',0.0248,0.4776,0.0,25.0,25.0,75.0,0.0,0.0,0.0,0.0,1,1,0.0,1,1.0,0,1.0,0,1.0,0,1.0
...